
 OpenBabel10141417503D

 21 24  0  0  1  0  0  0  0  0999 V2000
    0.3059    0.6396   -0.0264 C   0  0  0  0  0  0  0  0  0  0  0  0
    0.3942   -0.7409   -0.0500 C   0  0  0  0  0  0  0  0  0  0  0  0
   -0.9821    1.1956   -0.0654 C   0  0  0  0  0  0  0  0  0  0  0  0
    1.5548    1.2155    0.0257 N   0  0  0  0  0  0  0  0  0  0  0  0
    1.7388   -1.0103   -0.0464 N   0  0  0  0  0  0  0  0  0  0  0  0
   -0.6263   -1.6098   -0.0938 N   0  0  0  0  0  0  0  0  0  0  0  0
   -1.1663    2.5906   -0.0676 N   0  0  0  0  0  0  0  0  0  0  0  0
   -2.0368    0.3390   -0.1115 N   0  0  0  0  0  0  0  0  0  0  0  0
    2.3870    0.1980   -0.0185 C   0  0  0  0  0  0  0  0  0  0  0  0
    2.3421   -2.3285   -0.1556 C   0  0  2  0  0  0  0  0  0  0  0  0
   -1.8157   -0.9859   -0.1014 C   0  0  0  0  0  0  0  0  0  0  0  0
   -2.4124    3.1466    0.4411 C   0  0  0  0  0  0  0  0  0  0  0  0
    3.2069   -2.7509    1.0508 C   0  0  0  0  0  0  0  0  0  0  0  0
    3.3034   -2.4141   -1.3028 C   0  0  0  0  0  0  0  0  0  0  0  0
   -2.9408   -1.7866   -0.1432 N   0  0  0  0  0  0  0  0  0  0  0  0
   -2.4183    4.5130    1.0686 C   0  0  0  0  0  0  0  0  0  0  0  0
   -2.6667    3.2985    1.9143 C   0  0  0  0  0  0  0  0  0  0  0  0
    4.6821   -2.6861    0.6004 C   0  0  1  0  0  0  0  0  0  0  0  0
    4.5700   -2.5951   -0.8949 C   0  0  0  0  0  0  0  0  0  0  0  0
    5.4534   -1.5239    1.2347 C   0  0  0  0  0  0  0  0  0  0  0  0
    6.8049   -1.5082    0.7898 O   0  0  0  0  0  0  0  0  0  0  0  0
  1  2  2  0  0  0  0
  1  3  1  0  0  0  0
  1  4  1  0  0  0  0
  2  5  1  0  0  0  0
  2  6  1  0  0  0  0
  3  7  1  0  0  0  0
  3  8  2  0  0  0  0
  4  9  2  0  0  0  0
  5  9  1  0  0  0  0
  6 11  2  0  0  0  0
  7 12  1  0  0  0  0
  8 11  1  0  0  0  0
 10  5  1  1  0  0  0
 10 13  1  0  0  0  0
 10 14  1  0  0  0  0
 11 15  1  0  0  0  0
 12 16  1  0  0  0  0
 12 17  1  0  0  0  0
 13 18  1  0  0  0  0
 14 19  2  0  0  0  0
 16 17  1  0  0  0  0
 18 19  1  0  0  0  0
 18 20  1  1  0  0  0
 20 21  1  0  0  0  0
M  END
