659
 OpenBabel10141417493D

 11 10  0  0  0  0  0  0  0  0999 V2000
    5.1906    0.9056   -1.1649 S   0  0  0  0  0  0  0  0  0  0  0  0
    5.6844    0.1787   -2.5100 O   0  0  0  0  0  0  0  0  0  0  0  0
    4.4806    2.0963   -1.6031 O   0  0  0  0  0  0  0  0  0  0  0  0
    6.3455    0.9692   -0.3074 O   0  0  0  0  0  0  0  0  0  0  0  0
    3.6544    3.0143    2.4686 O   0  0  0  0  0  0  0  0  0  0  0  0
    5.0442    1.2978    1.8604 N   0  0  0  0  0  0  0  0  0  0  0  0
    3.2360    0.0593    0.6527 C   0  0  0  0  0  0  0  0  0  0  0  0
    4.0320   -0.3395   -0.5925 C   0  0  0  0  0  0  0  0  0  0  0  0
    4.0655    0.2381    1.9296 C   0  0  0  0  0  0  0  0  0  0  0  0
    4.7504    2.6217    2.0814 C   0  0  0  0  0  0  0  0  0  0  0  0
    5.9156    3.5535    1.8506 C   0  0  0  0  0  0  0  0  0  0  0  0
  1  2  1  0  0  0  0
  1  3  2  0  0  0  0
  1  4  2  0  0  0  0
  1  8  1  0  0  0  0
  5 10  2  0  0  0  0
  6  9  1  0  0  0  0
  6 10  1  0  0  0  0
  7  8  1  0  0  0  0
  7  9  1  0  0  0  0
 10 11  1  0  0  0  0
M  END
