ChEBI
 OpenBabel10141417503D

 44 47  0  0  1  0  0  0  0  0999 V2000
    0.7016    1.3298    0.1281 C   0  0  1  0  0  0  0  0  0  0  0  0
   -0.7085    1.7150    0.6201 C   0  0  2  0  0  0  0  0  0  0  0  0
    0.8276    1.8650   -1.2113 O   0  0  0  0  0  0  0  0  0  0  0  0
    1.7741    1.8741    1.0904 C   0  0  1  0  0  0  0  0  0  0  0  0
   -0.8308    3.1405    0.8090 O   0  0  0  0  0  0  0  0  0  0  0  0
   -1.1727    0.9287    1.8603 C   0  0  0  0  0  0  0  0  0  0  0  0
    2.0734    1.5705   -1.8563 C   0  0  2  0  0  0  0  0  0  0  0  0
    1.5878    3.3826    1.2998 C   0  0  2  0  0  0  0  0  0  0  0  0
    1.7327    1.1720    2.3341 O   0  0  0  0  0  0  0  0  0  0  0  0
    0.1241    3.7343    1.6884 C   0  0  1  0  0  0  0  0  0  0  0  0
   -2.4885    1.3348    2.2398 O   0  0  0  0  0  0  0  0  0  0  0  0
    2.1427    2.1540   -3.2754 C   0  0  1  0  0  0  0  0  0  0  0  0
    2.3101    0.1667   -1.8842 O   0  0  0  0  0  0  0  0  0  0  0  0
    2.0075    4.0712    0.1126 O   0  0  0  0  0  0  0  0  0  0  0  0
   -0.0186    5.1689    1.6423 O   0  0  0  0  0  0  0  0  0  0  0  0
    1.1853    1.4145   -4.1993 C   0  0  2  0  0  0  0  0  0  0  0  0
    1.8470    3.5572   -3.2953 O   0  0  0  0  0  0  0  0  0  0  0  0
    1.3085   -0.5547   -2.6241 C   0  0  1  0  0  0  0  0  0  0  0  0
   -1.3284    5.6606    1.9978 C   0  0  2  0  0  0  0  0  0  0  0  0
    1.3533   -0.1315   -4.1092 C   0  0  1  0  0  0  0  0  0  0  0  0
    1.4318    1.8604   -5.5495 O   0  0  0  0  0  0  0  0  0  0  0  0
    1.6140   -2.0197   -2.3418 C   0  0  0  0  0  0  0  0  0  0  0  0
   -1.6281    6.9102    1.1286 C   0  0  2  0  0  0  0  0  0  0  0  0
   -1.3504    5.9995    3.5006 C   0  0  1  0  0  0  0  0  0  0  0  0
    0.3302   -0.6545   -5.0244 N   0  0  0  0  0  0  0  0  0  0  0  0
   -0.8981    8.0818    1.5365 O   0  0  0  0  0  0  0  0  0  0  0  0
   -3.1330    7.2100    0.9960 C   0  0  0  0  0  0  0  0  0  0  0  0
   -0.5011    7.2438    3.8039 C   0  0  2  0  0  0  0  0  0  0  0  0
   -2.6922    6.2246    3.9494 O   0  0  0  0  0  0  0  0  0  0  0  0
    0.2092   -2.0895   -5.2944 C   0  0  1  0  0  0  0  0  0  0  0  0
   -0.9578    8.4203    2.9192 C   0  0  2  0  0  0  0  0  0  0  0  0
   -3.3386    8.3772    0.2023 O   0  0  0  0  0  0  0  0  0  0  0  0
    0.8870    6.9482    3.6109 O   0  0  0  0  0  0  0  0  0  0  0  0
   -0.9446   -2.1393   -6.2639 C   0  0  0  0  0  0  0  0  0  0  0  0
    1.4829   -2.8915   -5.7405 C   0  0  1  0  0  0  0  0  0  0  0  0
   -2.2427    8.9143    3.2690 O   0  0  0  0  0  0  0  0  0  0  0  0
   -0.8418   -2.4999   -7.5705 C   0  0  0  0  0  0  0  0  0  0  0  0
    1.3244   -3.6933   -7.0373 C   0  0  2  0  0  0  0  0  0  0  0  0
    2.6434   -2.0623   -5.9024 O   0  0  0  0  0  0  0  0  0  0  0  0
    0.4768   -2.9768   -8.1093 C   0  0  1  0  0  0  0  0  0  0  0  0
   -2.0137   -2.3242   -8.4828 C   0  0  0  0  0  0  0  0  0  0  0  0
    0.7575   -4.9847   -6.7464 O   0  0  0  0  0  0  0  0  0  0  0  0
    0.2926   -3.9458   -9.1553 O   0  0  0  0  0  0  0  0  0  0  0  0
   -2.7468   -3.5361   -8.5197 O   0  0  0  0  0  0  0  0  0  0  0  0
  1  2  1  0  0  0  0
  1  3  1  6  0  0  0
  1  4  1  0  0  0  0
  2  5  1  0  0  0  0
  2  6  1  1  0  0  0
  4  8  1  0  0  0  0
  4  9  1  1  0  0  0
  5 10  1  0  0  0  0
  6 11  1  0  0  0  0
  7  3  1  6  0  0  0
  7 12  1  0  0  0  0
  7 13  1  0  0  0  0
  8 10  1  0  0  0  0
  8 14  1  6  0  0  0
 10 15  1  6  0  0  0
 12 16  1  0  0  0  0
 12 17  1  1  0  0  0
 13 18  1  0  0  0  0
 16 20  1  0  0  0  0
 16 21  1  6  0  0  0
 18 22  1  6  0  0  0
 18 20  1  0  0  0  0
 19 15  1  6  0  0  0
 19 23  1  0  0  0  0
 19 24  1  0  0  0  0
 20 25  1  6  0  0  0
 23 26  1  0  0  0  0
 23 27  1  1  0  0  0
 24 28  1  0  0  0  0
 24 29  1  6  0  0  0
 26 31  1  0  0  0  0
 27 32  1  0  0  0  0
 28 31  1  0  0  0  0
 28 33  1  6  0  0  0
 30 25  1  6  0  0  0
 30 34  1  0  0  0  0
 30 35  1  0  0  0  0
 31 36  1  1  0  0  0
 34 37  2  0  0  0  0
 35 38  1  0  0  0  0
 35 39  1  6  0  0  0
 37 40  1  0  0  0  0
 37 41  1  0  0  0  0
 38 42  1  1  0  0  0
 38 40  1  0  0  0  0
 40 43  1  6  0  0  0
 41 44  1  0  0  0  0
M  END
