
 OpenBabel10141417513D

 26 28  0  0  0  0  0  0  0  0999 V2000
   -1.7356    2.6513   -0.0899 C   0  0  0  0  0  0  0  0  0  0  0  0
   -0.7269    3.4198   -0.6677 C   0  0  0  0  0  0  0  0  0  0  0  0
    0.5012    2.8367   -1.0027 C   0  0  0  0  0  0  0  0  0  0  0  0
    0.7319    1.4717   -0.7799 C   0  0  0  0  0  0  0  0  0  0  0  0
   -0.2797    0.7391   -0.1671 C   0  0  0  0  0  0  0  0  0  0  0  0
   -1.5106    1.3034    0.1714 C   0  0  0  0  0  0  0  0  0  0  0  0
    1.9862    0.7809   -1.0936 C   0  0  0  0  0  0  0  0  0  0  0  0
    2.2254   -0.4683   -0.6596 C   0  0  0  0  0  0  0  0  0  0  0  0
    1.1423   -1.2302    0.0240 C   0  0  0  0  0  0  0  0  0  0  0  0
   -0.0878   -0.6087    0.1742 O   0  0  0  0  0  0  0  0  0  0  0  0
    3.5546   -1.2104   -0.7938 C   0  0  3  0  0  0  0  0  0  0  0  0
    3.6229   -1.9929   -2.1117 C   0  0  0  0  0  0  0  0  0  0  0  0
    4.1008   -1.4161   -3.3005 C   0  0  0  0  0  0  0  0  0  0  0  0
    1.3058   -2.3857    0.4069 O   0  0  0  0  0  0  0  0  0  0  0  0
    3.1589   -3.3216   -2.1517 C   0  0  0  0  0  0  0  0  0  0  0  0
    3.1848   -4.0609   -3.3368 C   0  0  0  0  0  0  0  0  0  0  0  0
    3.6782   -3.4718   -4.5049 C   0  0  0  0  0  0  0  0  0  0  0  0
    4.1373   -2.1496   -4.4910 C   0  0  0  0  0  0  0  0  0  0  0  0
    2.9180    1.4535   -1.8605 O   0  0  0  0  0  0  0  0  0  0  0  0
    4.8262   -0.3666   -0.5386 C   0  0  0  0  0  0  0  0  0  0  0  0
    4.8483    0.2399    0.8525 C   0  0  0  0  0  0  0  0  0  0  0  0
    5.4881   -0.5540    1.9598 C   0  0  0  0  0  0  0  0  0  0  0  0
    4.3375    1.3333    1.0909 O   0  0  0  0  0  0  0  0  0  0  0  0
    3.7096   -4.2421   -5.7540 N   0  3  0  0  0  0  0  0  0  0  0  0
    3.2905   -5.4082   -5.7247 O   0  5  0  0  0  0  0  0  0  0  0  0
    4.1554   -3.6820   -6.7660 O   0  0  0  0  0  0  0  0  0  0  0  0
  1  2  2  0  0  0  0
  1  6  1  0  0  0  0
  2  3  1  0  0  0  0
  3  4  2  0  0  0  0
  4  5  1  0  0  0  0
  4  7  1  0  0  0  0
  5  6  2  0  0  0  0
  5 10  1  0  0  0  0
  7  8  2  0  0  0  0
  7 19  1  0  0  0  0
  8  9  1  0  0  0  0
  8 11  1  0  0  0  0
  9 10  1  0  0  0  0
  9 14  2  0  0  0  0
 11 12  1  0  0  0  0
 11 20  1  0  0  0  0
 12 13  1  0  0  0  0
 12 15  2  0  0  0  0
 13 18  2  0  0  0  0
 15 16  1  0  0  0  0
 16 17  2  0  0  0  0
 17 18  1  0  0  0  0
 17 24  1  0  0  0  0
 20 21  1  0  0  0  0
 21 22  1  0  0  0  0
 21 23  2  0  0  0  0
 24 25  1  0  0  0  0
 24 26  2  0  0  0  0
M  CHG  2  24   1  25  -1
M  END
