819
 OpenBabel10141417493D

 13 13  0  0  0  0  0  0  0  0999 V2000
    0.0028   -1.3317    0.2103 S   0  0  0  0  0  0  0  0  0  0  0  0
    1.9984    0.8460    0.5779 S   0  0  0  0  0  0  0  0  0  0  0  0
   -0.8316   -0.3733   -0.4842 O   0  0  0  0  0  0  0  0  0  0  0  0
   -0.0032   -2.7361   -0.1196 O   0  0  0  0  0  0  0  0  0  0  0  0
    6.2666    2.8415   -0.2780 O   0  0  0  0  0  0  0  0  0  0  0  0
    4.3962    1.6814    0.0712 N   0  0  0  0  0  0  0  0  0  0  0  0
    2.6879   -1.4095   -0.4243 N   0  0  0  0  0  0  0  0  0  0  0  0
   -0.4868   -1.2538    1.8269 N   0  0  0  0  0  0  0  0  0  0  0  0
    3.8203   -0.6135   -0.4647 N   0  0  0  0  0  0  0  0  0  0  0  0
    1.6578   -0.7520    0.0692 C   0  0  0  0  0  0  0  0  0  0  0  0
    3.5831    0.5901   -0.0031 C   0  0  0  0  0  0  0  0  0  0  0  0
    5.6959    1.7488   -0.3246 C   0  0  0  0  0  0  0  0  0  0  0  0
    6.4207    0.5205   -0.8059 C   0  0  0  0  0  0  0  0  0  0  0  0
  1  3  2  0  0  0  0
  1  4  2  0  0  0  0
  1  8  1  0  0  0  0
  1 10  1  0  0  0  0
  2 10  1  0  0  0  0
  2 11  1  0  0  0  0
  5 12  2  0  0  0  0
  6 11  1  0  0  0  0
  6 12  1  0  0  0  0
  7  9  1  0  0  0  0
  7 10  2  0  0  0  0
  9 11  2  0  0  0  0
 12 13  1  0  0  0  0
M  END
