
 OpenBabel10141417473D

  5  4  0  0  0  0  0  0  0  0999 V2000
    3.2478   -1.1842    0.1749 O   0  0  0  0  0  0  0  0  0  0  0  0
    2.4285    2.1755   -0.5115 O   0  0  0  0  0  0  0  0  0  0  0  0
    2.4801   -0.0327   -0.0594 N   0  0  0  0  0  0  0  0  0  0  0  0
    3.0902    1.1600   -0.3036 C   0  0  0  0  0  0  0  0  0  0  0  0
    4.5945    1.1635   -0.3042 C   0  0  0  0  0  0  0  0  0  0  0  0
  1  3  1  0  0  0  0
  2  4  2  0  0  0  0
  3  4  1  0  0  0  0
  4  5  1  0  0  0  0
M  END
