
 OpenBabel10141417533D

  4  3  0  0  0  0  0  0  0  0999 V2000
    0.9582    0.0207   -0.0582 C   0  0  0  0  0  0  0  0  0  0  0  0
    2.4770    0.0145   -0.0541 C   0  0  0  0  0  0  0  0  0  0  0  0
    3.0105   -0.9380    0.5797 O   0  5  0  0  0  0  0  0  0  0  0  0
    3.0123    0.9669   -0.6876 O   0  0  0  0  0  0  0  0  0  0  0  0
  2  1  1  0  0  0  0
  3  2  1  0  0  0  0
  4  2  2  0  0  0  0
M  CHG  1   3  -1
M  END
