945
 OpenBabel10141417483D

 13 13  0  0  0  0  0  0  0  0999 V2000
   -0.2966    0.1239    0.0579 O   0  0  0  0  0  0  0  0  0  0  0  0
   -4.1360   -1.5147   -0.6624 O   0  0  0  0  0  0  0  0  0  0  0  0
   -3.2001    0.3063    0.2478 O   0  0  0  0  0  0  0  0  0  0  0  0
   -0.9263    0.5771   -2.1485 O   0  0  0  0  0  0  0  0  0  0  0  0
   -0.6146   -1.2539    0.0534 C   0  0  0  0  0  0  0  0  0  0  0  0
   -1.9292   -1.7374    0.0496 C   0  0  0  0  0  0  0  0  0  0  0  0
    0.4553   -2.1302    0.2885 C   0  0  0  0  0  0  0  0  0  0  0  0
   -2.1545   -3.1046    0.2875 C   0  0  0  0  0  0  0  0  0  0  0  0
    0.2120   -3.4853    0.5367 C   0  0  0  0  0  0  0  0  0  0  0  0
   -1.0925   -3.9718    0.5401 C   0  0  0  0  0  0  0  0  0  0  0  0
   -3.1086   -0.8508   -0.0874 C   0  0  0  0  0  0  0  0  0  0  0  0
   -0.5989    0.9467   -1.0301 C   0  0  0  0  0  0  0  0  0  0  0  0
   -0.4066    2.3796   -0.6070 C   0  0  0  0  0  0  0  0  0  0  0  0
  1  5  1  0  0  0  0
  1 12  1  0  0  0  0
  2 11  1  0  0  0  0
  3 11  2  0  0  0  0
  4 12  2  0  0  0  0
  5  6  1  0  0  0  0
  5  7  2  0  0  0  0
  6  8  2  0  0  0  0
  6 11  1  0  0  0  0
  7  9  1  0  0  0  0
  8 10  1  0  0  0  0
  9 10  2  0  0  0  0
 12 13  1  0  0  0  0
M  END
