
 OpenBabel10141417513D

 57 64  0  0  0  0  0  0  0  0999 V2000
   -1.6995  -16.2353   11.3072 C   0  0  0  0  0  0  0  0  0  0  0  0
   -1.3437  -14.8617   10.7073 C   0  0  0  0  0  0  0  0  0  0  0  0
   -3.7086  -14.9030    9.5926 C   0  0  0  0  0  0  0  0  0  0  0  0
   -5.4391  -16.4590   10.4408 C   0  0  0  0  0  0  0  0  0  0  0  0
   -5.7560  -17.8286   10.9933 C   0  0  0  0  0  0  0  0  0  0  0  0
   -3.1051  -17.7716   13.8899 C   0  0  0  0  0  0  0  0  0  0  0  0
   -7.4109  -17.7604   13.5325 C   0  0  0  0  0  0  0  0  0  0  0  0
   -2.2859  -14.3168    9.6034 C   0  0  1  0  0  0  0  0  0  0  0  0
   -3.9326  -16.2538   10.2918 C   0  0  1  0  0  0  0  0  0  0  0  0
   -3.2083  -16.3453   11.6538 C   0  0  2  0  0  0  0  0  0  0  0  0
   -3.5746  -15.1549   12.5250 C   0  0  0  0  0  0  0  0  0  0  0  0
   -3.5797  -17.6839   12.4241 C   0  0  2  0  0  0  0  0  0  0  0  0
   -5.9411  -18.2025   13.6586 C   0  0  1  0  0  0  0  0  0  0  0  0
   -6.0158  -19.6039   14.0106 O   0  0  0  0  0  0  0  0  0  0  0  0
   -3.9601  -17.0340   14.9283 C   0  0  0  0  0  0  0  0  0  0  0  0
   -5.4608  -17.3760   14.9244 C   0  0  1  0  0  0  0  0  0  0  0  0
   -5.7010  -18.2021   16.2350 C   0  0  0  0  0  0  0  0  0  0  0  0
   -5.7161  -13.6411   14.4396 C   0  0  0  0  0  0  0  0  0  0  0  0
   -6.1616  -14.1701   16.6081 C   0  0  0  0  0  0  0  0  0  0  0  0
   -6.0806  -14.7197   15.3787 C   0  0  0  0  0  0  0  0  0  0  0  0
   -5.7584  -12.4410   15.2175 O   0  0  0  0  0  0  0  0  0  0  0  0
   -5.8741  -12.7831   16.5103 C   0  0  0  0  0  0  0  0  0  0  0  0
   -5.8142  -12.0221   17.4564 O   0  0  0  0  0  0  0  0  0  0  0  0
   -6.4814  -16.1383   15.0223 C   0  0  1  0  0  0  0  0  0  0  0  0
   -5.0651  -18.1736   12.3276 C   0  0  2  0  0  0  0  0  0  0  0  0
   -7.3826  -16.2648   13.7858 C   0  0  0  0  0  0  0  0  0  0  0  0
   -2.3282  -12.8780    9.7741 O   0  0  0  0  0  0  0  0  0  0  0  0
   -3.1102  -12.1396    8.8231 C   0  0  2  0  0  0  0  0  0  0  0  0
   -2.5704  -12.2449    7.5105 O   0  0  0  0  0  0  0  0  0  0  0  0
   -3.1304  -10.6617    9.2745 C   0  0  0  0  0  0  0  0  0  0  0  0
   -3.3566  -11.5793    6.4920 C   0  0  2  0  0  0  0  0  0  0  0  0
   -2.3204  -11.0415    5.4983 C   0  0  0  0  0  0  0  0  0  0  0  0
   -3.3882   -9.7195    8.0878 C   0  0  2  0  0  0  0  0  0  0  0  0
   -3.8601   -8.4159    8.4281 O   0  0  0  0  0  0  0  0  0  0  0  0
   -4.2673  -10.4349    7.0432 C   0  0  2  0  0  0  0  0  0  0  0  0
   -5.4538  -11.0590    7.6093 O   0  0  0  0  0  0  0  0  0  0  0  0
   -6.4526  -10.1593    8.0938 C   0  0  1  0  0  0  0  0  0  0  0  0
   -7.6691  -10.9582    8.5924 C   0  0  0  0  0  0  0  0  0  0  0  0
   -5.9906   -9.4283    9.2241 O   0  0  0  0  0  0  0  0  0  0  0  0
   -6.8202   -8.2801    9.4902 C   0  0  2  0  0  0  0  0  0  0  0  0
   -6.3979   -7.7668   10.8616 C   0  0  0  0  0  0  0  0  0  0  0  0
   -8.3685  -10.1889    9.7315 C   0  0  2  0  0  0  0  0  0  0  0  0
   -9.6979  -10.6666    9.9195 O   0  0  0  0  0  0  0  0  0  0  0  0
   -8.3213   -8.6651    9.4483 C   0  0  2  0  0  0  0  0  0  0  0  0
   -8.8977   -8.4594    8.1358 O   0  0  0  0  0  0  0  0  0  0  0  0
   -8.9768   -7.1042    7.6919 C   0  0  1  0  0  0  0  0  0  0  0  0
   -9.6246   -7.1198    6.2993 C   0  0  0  0  0  0  0  0  0  0  0  0
   -9.7241   -6.2964    8.5955 O   0  0  0  0  0  0  0  0  0  0  0  0
   -9.7821   -4.9342    8.1531 C   0  0  2  0  0  0  0  0  0  0  0  0
  -10.3842   -4.0757    9.2554 C   0  0  0  0  0  0  0  0  0  0  0  0
  -10.5880   -4.8542    6.8450 C   0  0  1  0  0  0  0  0  0  0  0  0
  -10.7657   -3.4858    6.4758 O   0  0  0  0  0  0  0  0  0  0  0  0
   -9.8547   -5.6964    5.7701 C   0  0  1  0  0  0  0  0  0  0  0  0
   -8.5517   -5.1204    5.4987 O   0  0  0  0  0  0  0  0  0  0  0  0
   -8.5383   -3.9521    4.7920 C   0  0  0  0  0  0  0  0  0  0  0  0
   -7.2319   -3.2540    5.0120 C   0  0  0  0  0  0  0  0  0  0  0  0
   -9.4940   -3.4828    4.1854 O   0  0  0  0  0  0  0  0  0  0  0  0
  1  2  1  0  0  0  0
  1 10  1  0  0  0  0
  2  8  1  0  0  0  0
  4  5  1  0  0  0  0
  7 26  1  0  0  0  0
  8  3  1  0  0  0  0
  8 27  1  1  0  0  0
  9  3  1  6  0  0  0
  9  4  1  0  0  0  0
 10  9  1  0  0  0  0
 10 11  1  1  0  0  0
 12 10  1  0  0  0  0
 12 25  1  0  0  0  0
 12  6  1  1  0  0  0
 13  7  1  0  0  0  0
 13 14  1  6  0  0  0
 15  6  1  0  0  0  0
 15 16  1  0  0  0  0
 16 13  1  0  0  0  0
 16 17  1  6  0  0  0
 18 21  1  0  0  0  0
 18 20  1  0  0  0  0
 19 20  2  0  0  0  0
 21 22  1  0  0  0  0
 22 19  1  0  0  0  0
 22 23  2  0  0  0  0
 24 16  1  0  0  0  0
 24 26  1  0  0  0  0
 24 20  1  6  0  0  0
 25  5  1  1  0  0  0
 25 13  1  0  0  0  0
 28 29  1  0  0  0  0
 28 27  1  1  0  0  0
 30 28  1  0  0  0  0
 31 35  1  0  0  0  0
 31 29  1  0  0  0  0
 31 32  1  6  0  0  0
 33 30  1  0  0  0  0
 33 34  1  1  0  0  0
 35 33  1  0  0  0  0
 35 36  1  1  0  0  0
 37 36  1  1  0  0  0
 38 37  1  0  0  0  0
 38 42  1  0  0  0  0
 39 37  1  0  0  0  0
 40 39  1  0  0  0  0
 40 41  1  1  0  0  0
 42 44  1  0  0  0  0
 42 43  1  6  0  0  0
 44 40  1  0  0  0  0
 44 45  1  6  0  0  0
 46 48  1  0  0  0  0
 46 45  1  1  0  0  0
 47 46  1  0  0  0  0
 49 51  1  0  0  0  0
 49 48  1  0  0  0  0
 49 50  1  1  0  0  0
 51 53  1  0  0  0  0
 51 52  1  6  0  0  0
 53 47  1  0  0  0  0
 53 54  1  1  0  0  0
 54 55  1  0  0  0  0
 55 56  1  0  0  0  0
 55 57  2  0  0  0  0
M  END
