316
 OpenBabel10141417523D

 11 11  0  0  0  0  0  0  0  0999 V2000
    0.8631    0.4968    0.2790 O   0  0  0  0  0  0  0  0  0  0  0  0
    6.5887   -2.7386   -0.3226 O   0  0  0  0  0  0  0  0  0  0  0  0
    6.3203   -0.4160   -0.3378 N   0  0  0  0  0  0  0  0  0  0  0  0
    4.9282   -0.2593   -0.1786 C   0  0  0  0  0  0  0  0  0  0  0  0
    4.0313   -1.3233   -0.0540 C   0  0  0  0  0  0  0  0  0  0  0  0
    4.4322    1.0514   -0.1453 C   0  0  0  0  0  0  0  0  0  0  0  0
    2.6607   -1.0852    0.1010 C   0  0  0  0  0  0  0  0  0  0  0  0
    3.0645    1.2914    0.0093 C   0  0  0  0  0  0  0  0  0  0  0  0
    2.1893    0.2214    0.1309 C   0  0  0  0  0  0  0  0  0  0  0  0
    7.0340   -1.5997   -0.3988 C   0  0  0  0  0  0  0  0  0  0  0  0
    8.5124   -1.3547   -0.5688 C   0  0  0  0  0  0  0  0  0  0  0  0
  1  9  1  0  0  0  0
  2 10  2  0  0  0  0
  3  4  1  0  0  0  0
  3 10  1  0  0  0  0
  4  5  2  0  0  0  0
  4  6  1  0  0  0  0
  5  7  1  0  0  0  0
  6  8  2  0  0  0  0
  7  9  2  0  0  0  0
  8  9  1  0  0  0  0
 10 11  1  0  0  0  0
M  END
