787
 OpenBabel10141417523D

 16 17  0  0  0  0  0  0  0  0999 V2000
    0.9584   -0.1768   -0.2041 O   0  0  0  0  0  0  0  0  0  0  0  0
   -5.3569   -0.0178    0.4948 O   0  0  0  0  0  0  0  0  0  0  0  0
    2.4013    2.2909   -0.2104 O   0  0  0  0  0  0  0  0  0  0  0  0
   -0.9767   -1.2822    0.4841 N   0  0  0  0  0  0  0  0  0  0  0  0
   -1.4756    1.1119    0.5347 N   0  0  0  0  0  0  0  0  0  0  0  0
   -3.0869   -2.0250    0.4880 N   0  0  0  0  0  0  0  0  0  0  0  0
   -3.7918    1.6711    0.4214 N   0  0  0  0  0  0  0  0  0  0  0  0
   -2.1465    3.2850    0.3961 N   0  0  0  0  0  0  0  0  0  0  0  0
   -1.7850   -0.1928    0.5215 C   0  0  0  0  0  0  0  0  0  0  0  0
    0.4719   -1.3323    0.4705 C   0  0  0  0  0  0  0  0  0  0  0  0
   -3.0764   -0.6454    0.4996 C   0  0  0  0  0  0  0  0  0  0  0  0
   -1.8132   -2.3737    0.4773 C   0  0  0  0  0  0  0  0  0  0  0  0
   -4.1772    0.3256    0.4738 C   0  0  0  0  0  0  0  0  0  0  0  0
   -2.5290    1.9843    0.4484 C   0  0  0  0  0  0  0  0  0  0  0  0
    2.3842   -0.1291   -0.2460 C   0  0  0  0  0  0  0  0  0  0  0  0
    2.8039    1.1497   -0.9678 C   0  0  0  0  0  0  0  0  0  0  0  0
  1 10  1  0  0  0  0
  1 15  1  0  0  0  0
  2 13  2  0  0  0  0
  3 16  1  0  0  0  0
  4  9  1  0  0  0  0
  4 10  1  0  0  0  0
  4 12  1  0  0  0  0
  5  9  1  0  0  0  0
  5 14  1  0  0  0  0
  6 11  1  0  0  0  0
  6 12  2  0  0  0  0
  7 13  1  0  0  0  0
  7 14  2  0  0  0  0
  8 14  1  0  0  0  0
  9 11  2  0  0  0  0
 11 13  1  0  0  0  0
 15 16  1  0  0  0  0
M  END
