
 OpenBabel10141417513D

 24 24  0  0  0  0  0  0  0  0999 V2000
    0.1993    0.3766    0.8343 C   0  0  0  0  0  0  0  0  0  0  0  0
   -0.8954   -0.5012    1.0511 C   0  0  0  0  0  0  0  0  0  0  0  0
   -2.0056   -0.4553    0.1833 C   0  0  0  0  0  0  0  0  0  0  0  0
   -2.0658    0.5019   -0.8301 C   0  0  0  0  0  0  0  0  0  0  0  0
   -1.0182    1.4106   -1.0287 C   0  0  0  0  0  0  0  0  0  0  0  0
    0.1113    1.3587   -0.1852 C   0  0  0  0  0  0  0  0  0  0  0  0
    1.4275    0.3003    1.7126 C   0  0  0  0  0  0  0  0  0  0  0  0
   -0.8883   -1.5302    2.1571 C   0  0  0  0  0  0  0  0  0  0  0  0
   -3.7636   -1.7755   -0.7057 C   0  0  0  0  0  0  0  0  0  0  0  0
   -1.1653    2.4484   -2.1118 C   0  0  0  0  0  0  0  0  0  0  0  0
    1.1892    2.3404   -0.3871 C   0  0  0  0  0  0  0  0  0  0  0  0
    1.2188    3.5206    0.2539 C   0  0  0  0  0  0  0  0  0  0  0  0
    2.3761    5.0574   -1.2187 C   0  0  0  0  0  0  0  0  0  0  0  0
    3.3458    6.0572   -1.5969 C   0  0  0  0  0  0  0  0  0  0  0  0
    3.1265    6.9242   -2.5947 C   0  0  0  0  0  0  0  0  0  0  0  0
    5.2925    7.5460   -3.4759 C   0  0  0  0  0  0  0  0  0  0  0  0
   -3.0217   -1.3456    0.4313 O   0  0  0  0  0  0  0  0  0  0  0  0
    6.1859    9.5776   -4.3775 O   0  0  0  0  0  0  0  0  0  0  0  0
    6.3545    8.4329   -3.9861 C   0  0  0  0  0  0  0  0  0  0  0  0
    7.5544    7.8262   -3.9936 O   0  0  0  0  0  0  0  0  0  0  0  0
    2.2402    4.5298    0.0131 C   0  0  0  0  0  0  0  0  0  0  0  0
    3.0314    4.9876    1.2114 C   0  0  0  0  0  0  0  0  0  0  0  0
    4.0886    7.9331   -3.0060 C   0  0  0  0  0  0  0  0  0  0  0  0
    3.5863    9.3461   -2.8638 C   0  0  0  0  0  0  0  0  0  0  0  0
  1  2  1  0  0  0  0
  1  6  2  0  0  0  0
  1  7  1  0  0  0  0
  2  3  2  0  0  0  0
  2  8  1  0  0  0  0
  3  4  1  0  0  0  0
  3 17  1  0  0  0  0
  4  5  2  0  0  0  0
  5  6  1  0  0  0  0
  5 10  1  0  0  0  0
  6 11  1  0  0  0  0
 11 12  2  0  0  0  0
 12 21  1  0  0  0  0
 13 14  1  0  0  0  0
 14 15  2  0  0  0  0
 15 23  1  0  0  0  0
 16 19  1  0  0  0  0
 17  9  1  0  0  0  0
 19 18  2  0  0  0  0
 19 20  1  0  0  0  0
 21 13  2  0  0  0  0
 21 22  1  0  0  0  0
 23 16  2  0  0  0  0
 23 24  1  0  0  0  0
M  END
