
 OpenBabel10141417483D

 33 37  0  0  1  0  0  0  0  0999 V2000
   -3.9106    0.4137    0.2914 C   0  0  0  0  0  0  0  0  0  0  0  0
   -4.2911   -0.8397   -0.4915 C   0  0  0  0  0  0  0  0  0  0  0  0
   -2.4975    0.1782    0.9190 C   0  0  0  0  0  0  0  0  0  0  0  0
   -1.8064    1.3680    1.0456 O   0  0  0  0  0  0  0  0  0  0  0  0
   -2.0464   -0.8851    1.3051 O   0  0  0  0  0  0  0  0  0  0  0  0
   -0.6592    1.3123    1.9174 C   0  0  2  0  0  0  0  0  0  0  0  0
   -1.1722    1.3910    3.3666 C   0  0  3  0  0  0  0  0  0  0  0  0
    0.2669    2.5220    1.6460 C   0  0  0  0  0  0  0  0  0  0  0  0
    0.0259    1.5286    4.3037 C   0  0  0  0  0  0  0  0  0  0  0  0
   -2.0560    2.6407    3.5124 C   0  0  0  0  0  0  0  0  0  0  0  0
    0.1679    3.5487    2.8277 N   0  3  3  0  0  0  0  0  0  0  0  0
    0.7139    2.8789    4.1013 C   0  0  0  0  0  0  0  0  0  0  0  0
   -1.3214    3.8888    3.0206 C   0  0  0  0  0  0  0  0  0  0  0  0
    0.9971    4.7995    2.4462 C   0  0  0  0  0  0  0  0  0  0  0  0
   -4.9432   -1.9909   -0.0738 C   0  0  0  0  0  0  0  0  0  0  0  0
   -5.0846   -2.9615   -1.1056 C   0  0  0  0  0  0  0  0  0  0  0  0
   -4.5152   -2.5449   -2.2838 C   0  0  0  0  0  0  0  0  0  0  0  0
   -3.7952   -1.0072   -2.1398 S   0  0  0  0  0  0  0  0  0  0  0  0
    0.9717    5.8958    3.5107 C   0  0  0  0  0  0  0  0  0  0  0  0
    1.8865    7.0616    3.1351 C   0  0  0  0  0  0  0  0  0  0  0  0
    1.4098    7.6422    1.9237 O   0  0  0  0  0  0  0  0  0  0  0  0
    1.6701    8.9696    1.7064 C   0  0  0  0  0  0  0  0  0  0  0  0
    1.2123    9.4688    0.4824 C   0  0  0  0  0  0  0  0  0  0  0  0
    1.3819   10.8170    0.1532 C   0  0  0  0  0  0  0  0  0  0  0  0
    2.0079   11.6790    1.0494 C   0  0  0  0  0  0  0  0  0  0  0  0
    2.4774   11.1887    2.2639 C   0  0  0  0  0  0  0  0  0  0  0  0
    2.3192    9.8377    2.5868 C   0  0  0  0  0  0  0  0  0  0  0  0
   -4.9099    0.7959    1.3987 C   0  0  0  0  0  0  0  0  0  0  0  0
   -5.7383    2.3186    1.3621 S   0  0  0  0  0  0  0  0  0  0  0  0
   -5.3192    0.0767    2.5176 C   0  0  0  0  0  0  0  0  0  0  0  0
   -6.6214    1.9828    2.7791 C   0  0  0  0  0  0  0  0  0  0  0  0
   -6.3113    0.7487    3.2957 C   0  0  0  0  0  0  0  0  0  0  0  0
   -3.8541    1.5149   -0.6277 O   0  0  0  0  0  0  0  0  0  0  0  0
  1  2  1  0  0  0  0
  1  3  1  0  0  0  0
  1 28  1  0  0  0  0
  1 33  1  0  0  0  0
  2 15  2  0  0  0  0
  2 18  1  0  0  0  0
  3  4  1  0  0  0  0
  3  5  2  0  0  0  0
  6  7  1  0  0  0  0
  6  8  1  0  0  0  0
  6  4  1  6  0  0  0
  7  9  1  0  0  0  0
  7 10  1  0  0  0  0
  8 11  1  0  0  0  0
  9 12  1  0  0  0  0
 10 13  1  0  0  0  0
 11 12  1  0  0  0  0
 11 13  1  0  0  0  0
 11 14  1  0  0  0  0
 14 19  1  0  0  0  0
 15 16  1  0  0  0  0
 16 17  2  0  0  0  0
 17 18  1  0  0  0  0
 19 20  1  0  0  0  0
 20 21  1  0  0  0  0
 21 22  1  0  0  0  0
 22 23  2  0  0  0  0
 22 27  1  0  0  0  0
 23 24  1  0  0  0  0
 24 25  2  0  0  0  0
 25 26  1  0  0  0  0
 26 27  2  0  0  0  0
 29 28  1  0  0  0  0
 30 28  2  0  0  0  0
 31 29  1  0  0  0  0
 32 30  1  0  0  0  0
 32 31  2  0  0  0  0
M  CHG  1  11   1
M  END
