210
 OpenBabel10141417483D

 31 36  0  0  0  0  0  0  0  0999 V2000
    0.0290    0.2828   -0.4743 O   0  0  0  0  0  0  0  0  0  0  0  0
    1.3077  -12.3559   -2.0461 O   0  0  0  0  0  0  0  0  0  0  0  0
    0.9513  -12.6407    0.1602 O   0  0  0  0  0  0  0  0  0  0  0  0
    2.0214   -1.1374    1.1473 C   0  0  3  0  0  0  0  0  0  0  0  0
    3.9068    0.5618    1.5306 C   0  0  3  0  0  0  0  0  0  0  0  0
    3.9141   -1.5630    2.8594 C   0  0  3  0  0  0  0  0  0  0  0  0
    2.1887    0.1917    3.3361 C   0  0  3  0  0  0  0  0  0  0  0  0
    2.9546   -0.0727    0.4923 C   0  0  0  0  0  0  0  0  0  0  0  0
    2.9657   -2.1895    1.8313 C   0  0  0  0  0  0  0  0  0  0  0  0
    1.2335   -0.4434    2.3003 C   0  0  0  0  0  0  0  0  0  0  0  0
    4.7933   -0.5249    2.1543 C   0  0  0  0  0  0  0  0  0  0  0  0
    3.0816    1.2329    2.6412 C   0  0  0  0  0  0  0  0  0  0  0  0
    3.0811   -0.8924    3.9566 C   0  0  0  0  0  0  0  0  0  0  0  0
    1.0676   -1.7944    0.1016 C   0  0  0  0  0  0  0  0  0  0  0  0
    0.1242   -1.0735   -0.6646 C   0  0  0  0  0  0  0  0  0  0  0  0
    1.1292   -3.1999   -0.1295 C   0  0  0  0  0  0  0  0  0  0  0  0
    0.3268   -3.9010   -1.0568 C   0  0  0  0  0  0  0  0  0  0  0  0
   -0.6852   -1.7554   -1.5888 C   0  0  0  0  0  0  0  0  0  0  0  0
   -0.5874   -3.1363   -1.7786 C   0  0  0  0  0  0  0  0  0  0  0  0
    0.4428   -5.3742   -1.2485 C   0  0  0  0  0  0  0  0  0  0  0  0
   -0.9063    0.9908   -1.2875 C   0  0  0  0  0  0  0  0  0  0  0  0
    0.8405   -6.2254   -0.1972 C   0  0  0  0  0  0  0  0  0  0  0  0
    0.1471   -5.9894   -2.4785 C   0  0  0  0  0  0  0  0  0  0  0  0
    0.9265   -7.6229   -0.3435 C   0  0  0  0  0  0  0  0  0  0  0  0
    0.2303   -7.3771   -2.6480 C   0  0  0  0  0  0  0  0  0  0  0  0
    0.6135   -8.2038   -1.5870 C   0  0  0  0  0  0  0  0  0  0  0  0
    1.2888   -8.4544    0.7292 C   0  0  0  0  0  0  0  0  0  0  0  0
    0.6687   -9.5972   -1.7376 C   0  0  0  0  0  0  0  0  0  0  0  0
    1.3381   -9.8419    0.5743 C   0  0  0  0  0  0  0  0  0  0  0  0
    1.0434  -10.4226   -0.6661 C   0  0  0  0  0  0  0  0  0  0  0  0
    1.0779  -11.9060   -0.7892 C   0  0  0  0  0  0  0  0  0  0  0  0
  1 15  1  0  0  0  0
  1 21  1  0  0  0  0
  2 31  1  0  0  0  0
  3 31  2  0  0  0  0
  4  8  1  0  0  0  0
  4  9  1  0  0  0  0
  4 10  1  0  0  0  0
  4 14  1  0  0  0  0
  5  8  1  0  0  0  0
  5 11  1  0  0  0  0
  5 12  1  0  0  0  0
  6  9  1  0  0  0  0
  6 11  1  0  0  0  0
  6 13  1  0  0  0  0
  7 10  1  0  0  0  0
  7 12  1  0  0  0  0
  7 13  1  0  0  0  0
 14 15  2  0  0  0  0
 14 16  1  0  0  0  0
 15 18  1  0  0  0  0
 16 17  2  0  0  0  0
 17 19  1  0  0  0  0
 17 20  1  0  0  0  0
 18 19  2  0  0  0  0
 20 22  2  0  0  0  0
 20 23  1  0  0  0  0
 22 24  1  0  0  0  0
 23 25  2  0  0  0  0
 24 26  2  0  0  0  0
 24 27  1  0  0  0  0
 25 26  1  0  0  0  0
 26 28  1  0  0  0  0
 27 29  2  0  0  0  0
 28 30  2  0  0  0  0
 29 30  1  0  0  0  0
 30 31  1  0  0  0  0
M  END
