718
 OpenBabel10141417493D

 34 35  0  0  0  0  0  0  0  0999 V2000
    1.0270   -0.0693   -0.0669 P   0  0  0  0  0  0  0  0  0  0  0  0
    3.3364   -0.6326    1.1566 O   0  0  0  0  0  0  0  0  0  0  0  0
    0.4442    2.0794   -3.2449 O   0  0  0  0  0  0  0  0  0  0  0  0
    1.1792   -3.9326   -0.2467 O   0  0  0  0  0  0  0  0  0  0  0  0
    1.1626    0.6121   -1.5826 O   0  0  0  0  0  0  0  0  0  0  0  0
    1.1560   -1.6509   -0.5493 O   0  0  0  0  0  0  0  0  0  0  0  0
    1.7263    3.6781   -2.2363 O   0  0  0  0  0  0  0  0  0  0  0  0
   -1.0088   -3.8215   -0.9135 O   0  0  0  0  0  0  0  0  0  0  0  0
   -0.5173   -0.0693   -0.0669 O   0  0  0  0  0  0  0  0  0  0  0  0
    4.8164   -0.5284    3.6342 N   0  0  0  0  0  0  0  0  0  0  0  0
    4.7430    1.0558    5.1922 N   0  0  0  0  0  0  0  0  0  0  0  0
    2.7453   -1.7153    4.1195 N   0  0  0  0  0  0  0  0  0  0  0  0
    1.5676   -0.6987    5.9848 N   0  0  0  0  0  0  0  0  0  0  0  0
    2.3562    1.1688    7.1781 N   0  0  0  0  0  0  0  0  0  0  0  0
    1.6582    3.5329   -4.6722 C   0  0  0  0  0  0  0  0  0  0  0  0
    0.6123   -5.0188   -2.2969 C   0  0  0  0  0  0  0  0  0  0  0  0
    0.5172    4.3695   -5.2607 C   0  0  0  0  0  0  0  0  0  0  0  0
    2.9500    4.3612   -4.6253 C   0  0  0  0  0  0  0  0  0  0  0  0
    1.9034    2.2864   -5.5382 C   0  0  0  0  0  0  0  0  0  0  0  0
    0.4611   -6.5077   -1.9792 C   0  0  0  0  0  0  0  0  0  0  0  0
   -0.2593   -4.6535   -3.5107 C   0  0  0  0  0  0  0  0  0  0  0  0
    2.0782   -4.6972   -2.6381 C   0  0  0  0  0  0  0  0  0  0  0  0
    1.2998    3.1251   -3.2458 C   0  0  0  0  0  0  0  0  0  0  0  0
    0.1504   -4.1993   -1.0925 C   0  0  0  0  0  0  0  0  0  0  0  0
    5.2687   -1.2733    2.4791 C   0  0  0  0  0  0  0  0  0  0  0  0
    4.7667   -0.6528    1.1805 C   0  0  0  0  0  0  0  0  0  0  0  0
    2.8570   -0.0693   -0.0669 C   0  0  0  0  0  0  0  0  0  0  0  0
    3.6630   -0.7568    4.3317 C   0  0  0  0  0  0  0  0  0  0  0  0
    0.1608    1.5464   -1.9534 C   0  0  0  0  0  0  0  0  0  0  0  0
    1.0436   -2.6771    0.4199 C   0  0  0  0  0  0  0  0  0  0  0  0
    3.6362    0.2342    5.2990 C   0  0  0  0  0  0  0  0  0  0  0  0
    5.4334    0.5610    4.1862 C   0  0  0  0  0  0  0  0  0  0  0  0
    2.5288    0.2365    6.1627 C   0  0  0  0  0  0  0  0  0  0  0  0
    1.7313   -1.6088    5.0004 C   0  0  0  0  0  0  0  0  0  0  0  0
  1  5  1  0  0  0  0
  1  6  1  0  0  0  0
  1  9  2  0  0  0  0
  1 27  1  0  0  0  0
  2 26  1  0  0  0  0
  2 27  1  0  0  0  0
  3 23  1  0  0  0  0
  3 29  1  0  0  0  0
  4 24  1  0  0  0  0
  4 30  1  0  0  0  0
  5 29  1  0  0  0  0
  6 30  1  0  0  0  0
  7 23  2  0  0  0  0
  8 24  2  0  0  0  0
 10 25  1  0  0  0  0
 10 28  1  0  0  0  0
 10 32  1  0  0  0  0
 11 31  1  0  0  0  0
 11 32  2  0  0  0  0
 12 28  2  0  0  0  0
 12 34  1  0  0  0  0
 13 33  1  0  0  0  0
 13 34  2  0  0  0  0
 14 33  1  0  0  0  0
 15 17  1  0  0  0  0
 15 18  1  0  0  0  0
 15 19  1  0  0  0  0
 15 23  1  0  0  0  0
 16 20  1  0  0  0  0
 16 21  1  0  0  0  0
 16 22  1  0  0  0  0
 16 24  1  0  0  0  0
 25 26  1  0  0  0  0
 28 31  1  0  0  0  0
 31 33  2  0  0  0  0
M  END
