131
 OpenBabel10141417483D

 23 25  0  0  1  0  0  0  0  0999 V2000
   -0.9060   -1.5988   -0.3414 P   0  0  0  0  0  0  0  0  0  0  0  0
    1.5182   -5.4008   -2.5231 O   0  0  0  0  0  0  0  0  0  0  0  0
    2.1997   -4.3129   -5.4143 O   0  0  0  0  0  0  0  0  0  0  0  0
    0.3134   -2.6564   -4.5710 O   0  0  0  0  0  0  0  0  0  0  0  0
   -0.0791   -2.2323   -1.5428 O   0  0  0  0  0  0  0  0  0  0  0  0
   -2.4084   -2.0735   -0.5850 O   0  0  0  0  0  0  0  0  0  0  0  0
   -0.9945   -0.0489   -0.7211 O   0  0  0  0  0  0  0  0  0  0  0  0
   -0.4023   -1.8394    1.0398 O   0  0  0  0  0  0  0  0  0  0  0  0
    0.6189   -7.1913   -3.7267 N   0  0  0  0  0  0  0  0  0  0  0  0
    0.0165   -9.2646   -3.1620 N   0  0  0  0  0  0  0  0  0  0  0  0
   -1.5522   -6.2955   -4.3696 N   0  0  0  0  0  0  0  0  0  0  0  0
   -3.3340   -7.8751   -3.9685 N   0  0  0  0  0  0  0  0  0  0  0  0
   -2.9982  -10.0427   -3.1340 N   0  0  0  0  0  0  0  0  0  0  0  0
    1.0435   -4.9531   -4.8395 C   0  0  2  0  0  0  0  0  0  0  0  0
    0.3081   -3.9461   -3.9660 C   0  0  1  0  0  0  0  0  0  0  0  0
    1.4750   -6.0255   -3.8336 C   0  0  1  0  0  0  0  0  0  0  0  0
    1.0968   -4.0301   -2.6620 C   0  0  1  0  0  0  0  0  0  0  0  0
    0.2813   -3.6043   -1.4406 C   0  0  0  0  0  0  0  0  0  0  0  0
   -0.7330   -7.2593   -3.9252 C   0  0  0  0  0  0  0  0  0  0  0  0
    1.0289   -8.4340   -3.3100 C   0  0  0  0  0  0  0  0  0  0  0  0
   -1.0944   -8.5362   -3.5336 C   0  0  0  0  0  0  0  0  0  0  0  0
   -2.4684   -8.8301   -3.5582 C   0  0  0  0  0  0  0  0  0  0  0  0
   -2.8361   -6.6894   -4.3643 C   0  0  0  0  0  0  0  0  0  0  0  0
  1  5  1  0  0  0  0
  1  6  1  0  0  0  0
  1  7  1  0  0  0  0
  1  8  2  0  0  0  0
  2 16  1  0  0  0  0
  2 17  1  0  0  0  0
  5 18  1  0  0  0  0
  9 19  1  0  0  0  0
  9 20  1  0  0  0  0
 10 20  2  0  0  0  0
 10 21  1  0  0  0  0
 11 19  2  0  0  0  0
 11 23  1  0  0  0  0
 12 22  1  0  0  0  0
 12 23  2  0  0  0  0
 13 22  1  0  0  0  0
 14 15  1  0  0  0  0
 14 16  1  0  0  0  0
 14  3  1  1  0  0  0
 15 17  1  0  0  0  0
 15  4  1  6  0  0  0
 16  9  1  1  0  0  0
 17 18  1  1  0  0  0
 19 21  1  0  0  0  0
 21 22  2  0  0  0  0
M  END
