173
 OpenBabel10141417493D

 10 11  0  0  0  0  0  0  0  0999 V2000
   -1.5967    1.0553    0.0351 N   0  0  0  0  0  0  0  0  0  0  0  0
   -1.5231   -1.1582   -0.0434 N   0  0  0  0  0  0  0  0  0  0  0  0
    0.8817   -1.3712   -0.0393 N   0  0  0  0  0  0  0  0  0  0  0  0
    2.0518    0.7454    0.0415 N   0  0  0  0  0  0  0  0  0  0  0  0
    0.9816    2.8266    0.1514 N   0  0  0  0  0  0  0  0  0  0  0  0
   -0.2705    0.7338    0.0253 C   0  0  0  0  0  0  0  0  0  0  0  0
   -0.2515   -0.6489   -0.0216 C   0  0  0  0  0  0  0  0  0  0  0  0
    0.9066    1.4496    0.0700 C   0  0  0  0  0  0  0  0  0  0  0  0
   -2.3120   -0.1073   -0.0066 C   0  0  0  0  0  0  0  0  0  0  0  0
    1.9757   -0.6023   -0.0081 C   0  0  0  0  0  0  0  0  0  0  0  0
  1  6  1  0  0  0  0
  1  9  1  0  0  0  0
  2  7  1  0  0  0  0
  2  9  2  0  0  0  0
  3  7  2  0  0  0  0
  3 10  1  0  0  0  0
  4  8  1  0  0  0  0
  4 10  2  0  0  0  0
  5  8  1  0  0  0  0
  6  7  1  0  0  0  0
  6  8  2  0  0  0  0
M  END
