
 OpenBabel10141417503D

 18 19  0  0  0  0  0  0  0  0999 V2000
    0.5885   -2.2334   -0.8948 O   0  0  0  0  0  0  0  0  0  0  0  0
    0.1051    1.9869    1.5534 O   0  0  0  0  0  0  0  0  0  0  0  0
    0.4535    0.4713    3.2377 N   0  0  0  0  0  0  0  0  0  0  0  0
   -1.6635   -1.7975    3.4491 C   0  0  0  0  0  0  0  0  0  0  0  0
   -1.9483   -0.3104    3.2840 C   0  0  0  0  0  0  0  0  0  0  0  0
   -0.9571   -2.5603    2.4809 C   0  0  0  0  0  0  0  0  0  0  0  0
   -0.6454   -3.9180    2.7302 C   0  0  0  0  0  0  0  0  0  0  0  0
   -0.8578    0.6195    3.8438 C   0  0  0  0  0  0  0  0  0  0  0  0
   -2.0993   -2.4319    4.6213 C   0  0  0  0  0  0  0  0  0  0  0  0
   -0.5464   -2.0188    1.2548 C   0  0  0  0  0  0  0  0  0  0  0  0
   -1.1028   -4.5166    3.9102 C   0  0  0  0  0  0  0  0  0  0  0  0
    0.1174   -4.6447    1.7964 C   0  0  0  0  0  0  0  0  0  0  0  0
   -1.8366   -3.7828    4.8408 C   0  0  0  0  0  0  0  0  0  0  0  0
    0.1866   -2.7425    0.3138 C   0  0  0  0  0  0  0  0  0  0  0  0
    0.5414   -4.0559    0.6007 C   0  0  0  0  0  0  0  0  0  0  0  0
    0.8244    1.1810    2.1161 C   0  0  0  0  0  0  0  0  0  0  0  0
    2.2180    0.8651    1.6340 C   0  0  0  0  0  0  0  0  0  0  0  0
    0.1732   -0.8889   -1.1505 C   0  0  0  0  0  0  0  0  0  0  0  0
  1 14  1  0  0  0  0
  1 18  1  0  0  0  0
  2 16  2  0  0  0  0
  3  8  1  0  0  0  0
  3 16  1  0  0  0  0
  4  5  1  0  0  0  0
  4  6  1  0  0  0  0
  4  9  2  0  0  0  0
  5  8  1  0  0  0  0
  6  7  2  0  0  0  0
  6 10  1  0  0  0  0
  7 11  1  0  0  0  0
  7 12  1  0  0  0  0
  9 13  1  0  0  0  0
 10 14  2  0  0  0  0
 11 13  2  0  0  0  0
 12 15  2  0  0  0  0
 14 15  1  0  0  0  0
 16 17  1  0  0  0  0
M  END
