
 OpenBabel10141417493D

 24 29  0  0  1  0  0  0  0  0999 V2000
    2.0499   -2.3974   -2.3856 C   0  0  0  0  0  0  0  0  0  0  0  0
    2.7770   -1.3265   -2.9292 C   0  0  0  0  0  0  0  0  0  0  0  0
    2.6196   -0.0264   -2.4352 C   0  0  0  0  0  0  0  0  0  0  0  0
    1.7240    0.1898   -1.4016 C   0  0  0  0  0  0  0  0  0  0  0  0
    1.0257   -0.9006   -0.8423 C   0  0  0  0  0  0  0  0  0  0  0  0
    1.1652   -2.1897   -1.3282 C   0  0  0  0  0  0  0  0  0  0  0  0
    1.3950    1.4296   -0.7699 N   0  0  0  0  0  0  0  0  0  0  0  0
    0.0859    1.0847   -0.1606 C   0  0  2  0  0  0  0  0  0  0  0  0
    0.2201   -0.3947    0.3035 C   0  0  1  0  0  0  0  0  0  0  0  0
   -0.4516    2.0055    0.9625 C   0  0  1  0  0  0  0  0  0  0  0  0
   -1.7230    1.3935    1.5235 N   0  0  3  0  0  0  0  0  0  0  0  0
   -1.4416   -0.0331    1.8899 C   0  0  1  0  0  0  0  0  0  0  0  0
   -1.1804   -0.8779    0.6285 C   0  0  0  0  0  0  0  0  0  0  0  0
    0.5643    2.2599    2.0934 C   0  0  0  0  0  0  0  0  0  0  0  0
    0.2083    1.3280    3.2620 C   0  0  1  0  0  0  0  0  0  0  0  0
   -1.1036    1.8475    3.9120 C   0  0  1  0  0  0  0  0  0  0  0  0
   -2.1200    2.0954    2.7601 C   0  0  1  0  0  0  0  0  0  0  0  0
   -0.8710    3.0421    4.8518 C   0  0  0  0  0  0  0  0  0  0  0  0
   -0.1023   -0.0863    2.6957 C   0  0  3  0  0  0  0  0  0  0  0  0
   -2.2988    3.4642    2.4646 O   0  0  0  0  0  0  0  0  0  0  0  0
    0.9373   -0.5669    1.6657 C   0  0  1  0  0  0  0  0  0  0  0  0
    1.4519    2.6074   -1.6251 C   0  0  0  0  0  0  0  0  0  0  0  0
    1.1858   -1.9545    1.9407 O   0  0  0  0  0  0  0  0  0  0  0  0
   -2.1074    3.3920    5.6698 C   0  0  0  0  0  0  0  0  0  0  0  0
  1  2  2  0  0  0  0
  1  6  1  0  0  0  0
  2  3  1  0  0  0  0
  3  4  2  0  0  0  0
  4  5  1  0  0  0  0
  4  7  1  0  0  0  0
  5  6  2  0  0  0  0
  7 22  1  0  0  0  0
  8  7  1  6  0  0  0
  8  9  1  0  0  0  0
  8 10  1  0  0  0  0
  9  5  1  6  0  0  0
  9 13  1  0  0  0  0
  9 21  1  0  0  0  0
 10 11  1  0  0  0  0
 10 14  1  1  0  0  0
 11 12  1  0  0  0  0
 11 17  1  0  0  0  0
 12 13  1  6  0  0  0
 12 19  1  0  0  0  0
 15 14  1  6  0  0  0
 15 16  1  0  0  0  0
 15 19  1  0  0  0  0
 16 17  1  0  0  0  0
 16 18  1  1  0  0  0
 17 20  1  6  0  0  0
 18 24  1  0  0  0  0
 21 19  1  0  0  0  0
 21 23  1  1  0  0  0
M  END
