
 OpenBabel10141417503D

 23 26  0  0  0  0  0  0  0  0999 V2000
    1.6795    0.3148    0.6216 C   0  0  0  0  0  0  0  0  0  0  0  0
    3.0578    0.2016    0.1491 N   0  0  0  0  0  0  0  0  0  0  0  0
    3.3371    1.1277   -0.9603 C   0  0  0  0  0  0  0  0  0  0  0  0
    2.6906    0.7522   -2.3063 C   0  0  0  0  0  0  0  0  0  0  0  0
    2.9991   -0.6845   -2.7195 C   0  0  0  0  0  0  0  0  0  0  0  0
    3.4550   -1.0611   -3.9461 C   0  0  0  0  0  0  0  0  0  0  0  0
    3.7276   -2.4922   -4.2311 C   0  0  0  0  0  0  0  0  0  0  0  0
    2.6853   -3.4236   -4.3344 C   0  0  0  0  0  0  0  0  0  0  0  0
    2.9644   -4.7626   -4.6065 C   0  0  0  0  0  0  0  0  0  0  0  0
    4.2828   -5.1756   -4.7905 C   0  0  0  0  0  0  0  0  0  0  0  0
    5.3250   -4.2504   -4.7156 C   0  0  0  0  0  0  0  0  0  0  0  0
    5.0538   -2.9032   -4.4443 C   0  0  0  0  0  0  0  0  0  0  0  0
    6.1539   -1.8739   -4.4225 C   0  0  0  0  0  0  0  0  0  0  0  0
    6.0346   -0.9008   -5.5981 C   0  0  0  0  0  0  0  0  0  0  0  0
    4.8564   -0.0472   -5.6969 N   0  0  0  0  0  0  0  0  0  0  0  0
    3.6820   -0.0734   -4.9609 C   0  0  0  0  0  0  0  0  0  0  0  0
    2.8676    0.8853   -5.3687 N   0  0  0  0  0  0  0  0  0  0  0  0
    3.5032    1.5280   -6.3877 C   0  0  0  0  0  0  0  0  0  0  0  0
    4.7375    0.9716   -6.6335 C   0  0  0  0  0  0  0  0  0  0  0  0
    5.6892    1.3540   -7.6437 C   0  0  0  0  0  0  0  0  0  0  0  0
    6.7762    0.8166   -7.8333 O   0  0  0  0  0  0  0  0  0  0  0  0
    2.7437   -1.6468   -1.5630 C   0  0  0  0  0  0  0  0  0  0  0  0
    3.3941   -1.1733   -0.2510 C   0  0  0  0  0  0  0  0  0  0  0  0
  1  2  1  0  0  0  0
  2  3  1  0  0  0  0
  2 23  1  0  0  0  0
  3  4  1  0  0  0  0
  4  5  1  0  0  0  0
  5  6  2  0  0  0  0
  5 22  1  0  0  0  0
  6  7  1  0  0  0  0
  6 16  1  0  0  0  0
  7  8  2  0  0  0  0
  7 12  1  0  0  0  0
  8  9  1  0  0  0  0
  9 10  2  0  0  0  0
 10 11  1  0  0  0  0
 11 12  2  0  0  0  0
 12 13  1  0  0  0  0
 13 14  1  0  0  0  0
 14 15  1  0  0  0  0
 15 16  1  0  0  0  0
 15 19  1  0  0  0  0
 16 17  2  0  0  0  0
 17 18  1  0  0  0  0
 18 19  2  0  0  0  0
 19 20  1  0  0  0  0
 20 21  2  0  0  0  0
 22 23  1  0  0  0  0
M  END
