
 OpenBabel10141417503D

 28 31  0  0  1  0  0  0  0  0999 V2000
    0.4859    3.0427   -4.3458 C   0  0  0  0  0  0  0  0  0  0  0  0
    0.0370    1.7045   -3.9100 C   0  0  0  0  0  0  0  0  0  0  0  0
    1.0293    0.8443   -3.2315 C   0  0  0  0  0  0  0  0  0  0  0  0
    2.2882    1.2602   -3.0067 C   0  0  0  0  0  0  0  0  0  0  0  0
    2.8053    2.6336   -3.4021 C   0  0  2  0  0  0  0  0  0  0  0  0
    1.7387    3.4580   -4.1136 C   0  0  0  0  0  0  0  0  0  0  0  0
    3.2769    0.3867   -2.2869 C   0  0  0  0  0  0  0  0  0  0  0  0
    3.9191    1.0686   -1.0686 C   0  0  2  0  0  0  0  0  0  0  0  0
    4.3651    2.5482   -1.3008 C   0  0  2  0  0  0  0  0  0  0  0  0
    3.3291    3.3822   -2.1218 C   0  0  2  0  0  0  0  0  0  0  0  0
    4.8709    3.3387   -0.0353 C   0  0  1  0  0  0  0  0  0  0  0  0
    4.1303    4.6598    0.4106 C   0  0  2  0  0  0  0  0  0  0  0  0
    2.7362    4.9360   -0.2260 C   0  0  0  0  0  0  0  0  0  0  0  0
    2.2070    3.8726   -1.1849 C   0  0  2  0  0  0  0  0  0  0  0  0
    5.1216    2.5485    1.2630 C   0  0  0  0  0  0  0  0  0  0  0  0
    5.1930    3.5803    2.3907 C   0  0  2  0  0  0  0  0  0  0  0  0
    4.0884    4.5890    2.0002 C   0  0  2  0  0  0  0  0  0  0  0  0
   -1.1065    1.3209   -4.1171 O   0  0  0  0  0  0  0  0  0  0  0  0
    3.9433    2.4759   -4.4417 C   0  0  0  0  0  0  0  0  0  0  0  0
    1.6018    2.7826   -0.5106 O   0  0  0  0  0  0  0  0  0  0  0  0
    5.0136    5.8676   -0.0478 C   0  0  0  0  0  0  0  0  0  0  0  0
    6.6057    4.1359    2.5773 C   0  0  0  0  0  0  0  0  0  0  0  0
    2.7475    4.0248    2.5715 C   0  0  0  0  0  0  0  0  0  0  0  0
    2.2749    4.5190    3.9321 C   0  0  0  0  0  0  0  0  0  0  0  0
    2.1250    3.1135    2.0140 O   0  0  0  0  0  0  0  0  0  0  0  0
    4.3259    5.8784    2.5527 O   0  0  0  0  0  0  0  0  0  0  0  0
    2.9254    3.8245    4.9802 O   0  0  0  0  0  0  0  0  0  0  0  0
    5.3324    0.0312   -0.6158 Cl  0  0  0  0  0  0  0  0  0  0  0  0
  1  2  1  0  0  0  0
  1  6  2  0  0  0  0
  2  3  1  0  0  0  0
  2 18  2  0  0  0  0
  3  4  2  0  0  0  0
  4  5  1  0  0  0  0
  4  7  1  0  0  0  0
  5  6  1  0  0  0  0
  5 10  1  0  0  0  0
  5 19  1  1  0  0  0
  7  8  1  0  0  0  0
  8 28  1  6  0  0  0
  9  8  1  6  0  0  0
  9 11  1  0  0  0  0
 10  9  1  1  0  0  0
 10 14  1  0  0  0  0
 11 12  1  0  0  0  0
 11 15  1  1  0  0  0
 12 13  1  0  0  0  0
 12 17  1  0  0  0  0
 12 21  1  1  0  0  0
 13 14  1  0  0  0  0
 14 20  1  1  0  0  0
 15 16  1  0  0  0  0
 16 17  1  0  0  0  0
 16 22  1  6  0  0  0
 17 26  1  1  0  0  0
 17 23  1  0  0  0  0
 23 24  1  0  0  0  0
 23 25  2  0  0  0  0
 24 27  1  0  0  0  0
M  END
