630
 OpenBabel10141417543D

 14 13  0  0  0  0  0  0  0  0999 V2000
    1.0570    0.0723    0.0390 P   0  0  0  0  0  0  0  0  0  0  0  0
    3.6145   -0.6541   -1.4908 P   0  0  0  0  0  0  0  0  0  0  0  0
    3.3814    1.4465    0.0851 O   0  0  0  0  0  0  0  0  0  0  0  0
    1.0594    1.1966    1.2448 O   0  0  0  0  0  0  0  0  0  0  0  0
    1.0924    1.1931   -1.1695 O   0  0  0  0  0  0  0  0  0  0  0  0
    2.5602   -1.7519   -2.0112 O   0  0  0  0  0  0  0  0  0  0  0  0
    3.4959    0.4377   -2.6712 O   0  0  0  0  0  0  0  0  0  0  0  0
   -0.4873    0.0723    0.0390 O   0  0  0  0  0  0  0  0  0  0  0  0
    4.9818   -1.2308   -1.4345 O   0  0  0  0  0  0  0  0  0  0  0  0
    3.2963   -4.1540    2.9198 N   0  0  0  0  0  0  0  0  0  0  0  0
    2.8870    0.0723    0.0390 C   0  0  0  0  0  0  0  0  0  0  0  0
    3.4661   -0.6530    1.3001 C   0  0  0  0  0  0  0  0  0  0  0  0
    3.0569   -2.1298    1.4927 C   0  0  0  0  0  0  0  0  0  0  0  0
    3.7167   -2.7642    2.7361 C   0  0  0  0  0  0  0  0  0  0  0  0
  1  4  1  0  0  0  0
  1  5  1  0  0  0  0
  1  8  2  0  0  0  0
  1 11  1  0  0  0  0
  2  6  1  0  0  0  0
  2  7  1  0  0  0  0
  2  9  2  0  0  0  0
  2 11  1  0  0  0  0
  3 11  1  0  0  0  0
 10 14  1  0  0  0  0
 11 12  1  0  0  0  0
 12 13  1  0  0  0  0
 13 14  1  0  0  0  0
M  END
