1436
 OpenBabel10141417513D

 29 31  0  0  1  0  0  0  0  0999 V2000
   -0.3490    7.7791    4.5547 O   0  0  0  0  0  0  0  0  0  0  0  0
   -2.4936    7.1547    0.8768 O   0  0  0  0  0  0  0  0  0  0  0  0
   -8.5103    4.5493    1.0959 C   0  0  2  0  0  0  0  0  0  0  0  0
   -8.4840    4.8981   -0.4469 C   0  0  2  0  0  0  0  0  0  0  0  0
   -7.2682    3.6021    1.3297 C   0  0  1  0  0  0  0  0  0  0  0  0
   -7.8437    3.6094   -1.0153 C   0  0  0  0  0  0  0  0  0  0  0  0
   -6.6855    3.3283   -0.0666 C   0  0  0  0  0  0  0  0  0  0  0  0
   -8.4953    5.7371    2.0834 C   0  0  0  0  0  0  0  0  0  0  0  0
   -7.7252    6.1848   -0.9354 C   0  0  1  0  0  0  0  0  0  0  0  0
   -6.3647    4.1248    2.4522 C   0  0  0  0  0  0  0  0  0  0  0  0
   -9.8147    3.7428    1.3752 C   0  0  0  0  0  0  0  0  0  0  0  0
   -8.3033    5.3099    3.5456 C   0  0  0  0  0  0  0  0  0  0  0  0
   -7.1791    4.2839    3.7243 C   0  0  0  0  0  0  0  0  0  0  0  0
   -7.6201    6.3097   -2.4856 C   0  0  0  0  0  0  0  0  0  0  0  0
   -8.3028    7.5089   -0.4015 C   0  0  0  0  0  0  0  0  0  0  0  0
   -5.0675    4.4481    2.3186 C   0  0  0  0  0  0  0  0  0  0  0  0
   -8.9499    6.3402   -3.2546 C   0  0  0  0  0  0  0  0  0  0  0  0
   -8.7581    6.4611   -4.7761 C   0  0  0  0  0  0  0  0  0  0  0  0
   -4.2088    5.0650    3.3227 C   0  0  0  0  0  0  0  0  0  0  0  0
   -8.0547    7.7430   -5.2665 C   0  0  0  0  0  0  0  0  0  0  0  0
   -2.9063    5.3576    3.1764 C   0  0  0  0  0  0  0  0  0  0  0  0
   -2.0843    6.1082    4.2091 C   0  0  0  0  0  0  0  0  0  0  0  0
   -2.0975    5.0410    2.0015 C   0  0  0  0  0  0  0  0  0  0  0  0
   -7.9231    7.7074   -6.7920 C   0  0  0  0  0  0  0  0  0  0  0  0
   -8.7610    9.0252   -4.8206 C   0  0  0  0  0  0  0  0  0  0  0  0
   -1.3173    7.3092    3.6125 C   0  0  2  0  0  0  0  0  0  0  0  0
   -1.4861    6.2458    1.3215 C   0  0  2  0  0  0  0  0  0  0  0  0
   -0.5733    6.9583    2.3153 C   0  0  0  0  0  0  0  0  0  0  0  0
   -1.8012    3.7778    1.6770 C   0  0  0  0  0  0  0  0  0  0  0  0
  3  4  1  0  0  0  0
  3  5  1  0  0  0  0
  3  8  1  0  0  0  0
  3 11  1  6  0  0  0
  4  6  1  6  0  0  0
  4  9  1  0  0  0  0
  5  7  1  6  0  0  0
  5 10  1  0  0  0  0
  6  7  1  0  0  0  0
  8 12  1  0  0  0  0
  9 15  1  6  0  0  0
  9 14  1  0  0  0  0
 10 13  1  0  0  0  0
 10 16  2  0  0  0  0
 12 13  1  0  0  0  0
 14 17  1  0  0  0  0
 16 19  1  0  0  0  0
 17 18  1  0  0  0  0
 18 20  1  0  0  0  0
 19 21  2  0  0  0  0
 20 24  1  0  0  0  0
 20 25  1  0  0  0  0
 21 22  1  0  0  0  0
 21 23  1  0  0  0  0
 22 26  1  0  0  0  0
 23 27  1  0  0  0  0
 23 29  2  0  0  0  0
 26  1  1  1  0  0  0
 26 28  1  0  0  0  0
 27 28  1  0  0  0  0
 27  2  1  1  0  0  0
M  END
