802
 OpenBabel10141417493D

 30 32  0  0  0  0  0  0  0  0999 V2000
    1.7844   -0.8011    0.2773 O   0  0  0  0  0  0  0  0  0  0  0  0
   -0.4828    0.2098   -3.4808 O   0  0  0  0  0  0  0  0  0  0  0  0
   -7.5339   -0.4122    1.7588 O   0  0  0  0  0  0  0  0  0  0  0  0
   -2.7992    0.3582    1.1103 N   0  0  0  0  0  0  0  0  0  0  0  0
   -0.2727   -1.5083   -1.9423 N   0  0  0  0  0  0  0  0  0  0  0  0
   -6.3503    0.0396   -0.2177 N   0  0  0  0  0  0  0  0  0  0  0  0
   -6.5857   -0.2541   -1.5372 N   0  0  0  0  0  0  0  0  0  0  0  0
   -8.2497   -0.9725   -0.3972 N   0  0  0  0  0  0  0  0  0  0  0  0
   -7.6809   -0.8637   -1.6382 N   0  0  0  0  0  0  0  0  0  0  0  0
   -0.5134   -0.6023   -0.6968 C   0  0  0  0  0  0  0  0  0  0  0  0
   -1.5305    0.5493   -1.0315 C   0  0  0  0  0  0  0  0  0  0  0  0
   -1.1147   -1.4302    0.4861 C   0  0  0  0  0  0  0  0  0  0  0  0
   -2.1575    1.2660    0.1661 C   0  0  0  0  0  0  0  0  0  0  0  0
   -1.7983   -0.6068    1.5895 C   0  0  0  0  0  0  0  0  0  0  0  0
    0.8208    0.1061   -0.2676 C   0  0  0  0  0  0  0  0  0  0  0  0
   -4.0383   -0.2781    0.6051 C   0  0  0  0  0  0  0  0  0  0  0  0
    0.0731   -2.8781   -1.7191 C   0  0  0  0  0  0  0  0  0  0  0  0
   -0.2675   -0.9846   -3.2410 C   0  0  0  0  0  0  0  0  0  0  0  0
   -5.1609    0.7157    0.2309 C   0  0  0  0  0  0  0  0  0  0  0  0
   -0.0136   -1.8902   -4.4438 C   0  0  0  0  0  0  0  0  0  0  0  0
   -0.9184   -3.8687   -1.7696 C   0  0  0  0  0  0  0  0  0  0  0  0
    1.3942   -3.2545   -1.4626 C   0  0  0  0  0  0  0  0  0  0  0  0
    2.9898   -0.1472    0.6623 C   0  0  0  0  0  0  0  0  0  0  0  0
    1.4396   -1.8706   -4.8886 C   0  0  0  0  0  0  0  0  0  0  0  0
   -0.5899   -5.2125   -1.5449 C   0  0  0  0  0  0  0  0  0  0  0  0
    1.7191   -4.5950   -1.2218 C   0  0  0  0  0  0  0  0  0  0  0  0
   -7.3961   -0.4368    0.5281 C   0  0  0  0  0  0  0  0  0  0  0  0
    0.7282   -5.5738   -1.2672 C   0  0  0  0  0  0  0  0  0  0  0  0
   -9.4594   -1.7119   -0.1543 C   0  0  0  0  0  0  0  0  0  0  0  0
   -9.1780   -3.1771    0.1337 C   0  0  0  0  0  0  0  0  0  0  0  0
  1 15  1  0  0  0  0
  1 23  1  0  0  0  0
  2 18  2  0  0  0  0
  3 27  2  0  0  0  0
  4 13  1  0  0  0  0
  4 14  1  0  0  0  0
  4 16  1  0  0  0  0
  5 10  1  0  0  0  0
  5 17  1  0  0  0  0
  5 18  1  0  0  0  0
  6  7  1  0  0  0  0
  6 19  1  0  0  0  0
  6 27  1  0  0  0  0
  7  9  2  0  0  0  0
  8  9  1  0  0  0  0
  8 27  1  0  0  0  0
  8 29  1  0  0  0  0
 10 11  1  0  0  0  0
 10 12  1  0  0  0  0
 10 15  1  0  0  0  0
 11 13  1  0  0  0  0
 12 14  1  0  0  0  0
 16 19  1  0  0  0  0
 17 21  2  0  0  0  0
 17 22  1  0  0  0  0
 18 20  1  0  0  0  0
 20 24  1  0  0  0  0
 21 25  1  0  0  0  0
 22 26  2  0  0  0  0
 25 28  2  0  0  0  0
 26 28  1  0  0  0  0
 29 30  1  0  0  0  0
M  END
