2092
 OpenBabel10141417483D

 28 30  0  0  1  0  0  0  0  0999 V2000
   -0.2612   -0.3367   -4.0147 O   0  0  0  0  0  0  0  0  0  0  0  0
    2.0463   -1.2929   -1.4649 O   0  0  0  0  0  0  0  0  0  0  0  0
   -2.2741   -9.4838    3.3711 O   0  0  0  0  0  0  0  0  0  0  0  0
   -0.7488   -7.3149    3.6367 O   0  0  0  0  0  0  0  0  0  0  0  0
    0.8908   -2.5663   -2.9847 N   0  0  0  0  0  0  0  0  0  0  0  0
    1.0119   -7.4579   -3.2767 N   0  0  0  0  0  0  0  0  0  0  0  0
    0.3689   -7.4268   -1.0154 N   0  0  0  0  0  0  0  0  0  0  0  0
   -0.4135   -9.1331   -2.4338 N   0  0  0  0  0  0  0  0  0  0  0  0
   -1.8541  -10.7911   -1.7045 N   0  0  0  0  0  0  0  0  0  0  0  0
    0.1660   -0.2539   -2.6438 C   0  0  3  0  0  0  0  0  0  0  0  0
    0.7726    1.1211   -2.4442 C   0  0  0  0  0  0  0  0  0  0  0  0
    1.2744    1.4569   -3.8266 C   0  0  0  0  0  0  0  0  0  0  0  0
    0.2274    0.8184   -4.7106 C   0  0  0  0  0  0  0  0  0  0  0  0
    1.1497   -1.3972   -2.3129 C   0  0  0  0  0  0  0  0  0  0  0  0
    1.7143   -3.7489   -2.8373 C   0  0  0  0  0  0  0  0  0  0  0  0
    0.9319   -5.0126   -3.1618 C   0  0  0  0  0  0  0  0  0  0  0  0
    1.7958   -6.2612   -2.9666 C   0  0  0  0  0  0  0  0  0  0  0  0
    0.3049   -8.0215   -2.2142 C   0  0  0  0  0  0  0  0  0  0  0  0
    1.6138   -8.4476   -4.1539 C   0  0  0  0  0  0  0  0  0  0  0  0
   -1.0464   -9.1195   -0.1189 C   0  0  0  0  0  0  0  0  0  0  0  0
   -0.2826   -7.9689    0.0110 C   0  0  0  0  0  0  0  0  0  0  0  0
   -1.0832   -9.6596   -1.4031 C   0  0  0  0  0  0  0  0  0  0  0  0
   -1.7223   -9.6420    1.0013 C   0  0  0  0  0  0  0  0  0  0  0  0
   -0.1888   -7.3562    1.2524 C   0  0  0  0  0  0  0  0  0  0  0  0
   -1.6273   -9.0218    2.2502 C   0  0  0  0  0  0  0  0  0  0  0  0
   -0.8381   -7.8631    2.3831 C   0  0  0  0  0  0  0  0  0  0  0  0
   -3.0580  -10.6640    3.2133 C   0  0  0  0  0  0  0  0  0  0  0  0
    0.0306   -6.1393    3.8362 C   0  0  0  0  0  0  0  0  0  0  0  0
  1 10  1  0  0  0  0
  1 13  1  0  0  0  0
  2 14  2  0  0  0  0
  3 25  1  0  0  0  0
  3 27  1  0  0  0  0
  4 26  1  0  0  0  0
  4 28  1  0  0  0  0
  5 14  1  0  0  0  0
  5 15  1  0  0  0  0
  6 17  1  0  0  0  0
  6 18  1  0  0  0  0
  6 19  1  0  0  0  0
  7 18  2  0  0  0  0
  7 21  1  0  0  0  0
  8 18  1  0  0  0  0
  8 22  2  0  0  0  0
  9 22  1  0  0  0  0
 10 11  1  0  0  0  0
 10 14  1  0  0  0  0
 11 12  1  0  0  0  0
 12 13  1  0  0  0  0
 15 16  1  0  0  0  0
 16 17  1  0  0  0  0
 20 21  1  0  0  0  0
 20 22  1  0  0  0  0
 20 23  2  0  0  0  0
 21 24  2  0  0  0  0
 23 25  1  0  0  0  0
 24 26  1  0  0  0  0
 25 26  2  0  0  0  0
M  END
