1246
 OpenBabel10141417483D

 21 23  0  0  1  0  0  0  0  0999 V2000
   -0.1349   -2.6222    0.6363 S   0  0  0  0  0  0  0  0  0  0  0  0
   -0.2275   -0.0037   -1.0898 N   0  0  0  0  0  0  0  0  0  0  0  0
   -0.1689    2.3657    2.7267 N   0  0  0  0  0  0  0  0  0  0  0  0
   -0.9062    2.0227    0.2902 C   0  0  3  0  0  0  0  0  0  0  0  0
   -0.4097    1.4720   -1.0727 C   0  0  0  0  0  0  0  0  0  0  0  0
    0.1442    1.7906    1.4012 C   0  0  0  0  0  0  0  0  0  0  0  0
   -1.2234    3.5158    0.1237 C   0  0  0  0  0  0  0  0  0  0  0  0
    1.0640   -0.4967   -0.7500 C   0  0  0  0  0  0  0  0  0  0  0  0
   -1.4135   -0.7915   -1.0619 C   0  0  0  0  0  0  0  0  0  0  0  0
    1.2332   -1.6762    0.0007 C   0  0  0  0  0  0  0  0  0  0  0  0
   -1.4788   -2.0083   -0.3571 C   0  0  0  0  0  0  0  0  0  0  0  0
    2.2365    0.1559   -1.1870 C   0  0  0  0  0  0  0  0  0  0  0  0
   -2.5560   -0.4201   -1.8031 C   0  0  0  0  0  0  0  0  0  0  0  0
   -1.4053    1.8067    3.2804 C   0  0  0  0  0  0  0  0  0  0  0  0
    0.9444    2.0873    3.6437 C   0  0  0  0  0  0  0  0  0  0  0  0
    2.5188   -2.1403    0.3373 C   0  0  0  0  0  0  0  0  0  0  0  0
   -2.6478   -2.7930   -0.3746 C   0  0  0  0  0  0  0  0  0  0  0  0
    3.5132   -0.3087   -0.8474 C   0  0  0  0  0  0  0  0  0  0  0  0
   -3.7144   -1.2084   -1.8226 C   0  0  0  0  0  0  0  0  0  0  0  0
    3.6544   -1.4528   -0.0814 C   0  0  0  0  0  0  0  0  0  0  0  0
   -3.7615   -2.3921   -1.1068 C   0  0  0  0  0  0  0  0  0  0  0  0
  1 10  1  0  0  0  0
  1 11  1  0  0  0  0
  2  5  1  0  0  0  0
  2  8  1  0  0  0  0
  2  9  1  0  0  0  0
  3  6  1  0  0  0  0
  3 14  1  0  0  0  0
  3 15  1  0  0  0  0
  4  5  1  0  0  0  0
  4  6  1  0  0  0  0
  4  7  1  0  0  0  0
  8 10  1  0  0  0  0
  8 12  2  0  0  0  0
  9 11  1  0  0  0  0
  9 13  2  0  0  0  0
 10 16  2  0  0  0  0
 11 17  2  0  0  0  0
 12 18  1  0  0  0  0
 13 19  1  0  0  0  0
 16 20  1  0  0  0  0
 17 21  1  0  0  0  0
 18 20  2  0  0  0  0
 19 21  2  0  0  0  0
M  END
