523
 OpenBabel10141417523D

 22 22  0  0  0  0  0  0  0  0999 V2000
    4.1677    5.7689    7.5008 O   0  0  0  0  0  0  0  0  0  0  0  0
    4.1224    7.6143    6.2064 O   0  0  0  0  0  0  0  0  0  0  0  0
   -0.0581    1.8036    0.8207 C   0  0  0  0  0  0  0  0  0  0  0  0
   -1.5817    2.0945    0.7734 C   0  0  0  0  0  0  0  0  0  0  0  0
   -1.9013    3.5427    1.1010 C   0  0  0  0  0  0  0  0  0  0  0  0
    0.7502    2.9305    0.1374 C   0  0  0  0  0  0  0  0  0  0  0  0
   -1.2425    4.4627    0.0843 C   0  0  0  0  0  0  0  0  0  0  0  0
    0.2005    4.1198   -0.2143 C   0  0  0  0  0  0  0  0  0  0  0  0
    0.3937    1.6887    2.2942 C   0  0  0  0  0  0  0  0  0  0  0  0
    0.1393    0.4251    0.1456 C   0  0  0  0  0  0  0  0  0  0  0  0
    2.1536    2.6232   -0.1161 C   0  0  0  0  0  0  0  0  0  0  0  0
    0.9082    5.2389   -0.9433 C   0  0  0  0  0  0  0  0  0  0  0  0
    3.1762    3.2890    0.4423 C   0  0  0  0  0  0  0  0  0  0  0  0
    4.5979    3.0349    0.2286 C   0  0  0  0  0  0  0  0  0  0  0  0
    4.9994    1.9363   -0.7238 C   0  0  0  0  0  0  0  0  0  0  0  0
    5.5703    3.7558    0.8244 C   0  0  0  0  0  0  0  0  0  0  0  0
    5.4076    4.8456    1.7597 C   0  0  0  0  0  0  0  0  0  0  0  0
    4.7615    4.7319    2.9296 C   0  0  0  0  0  0  0  0  0  0  0  0
    4.5636    5.8011    3.8990 C   0  0  0  0  0  0  0  0  0  0  0  0
    4.4841    7.2225    3.3961 C   0  0  0  0  0  0  0  0  0  0  0  0
    4.4236    5.4534    5.1947 C   0  0  0  0  0  0  0  0  0  0  0  0
    4.2226    6.4009    6.3113 C   0  0  0  0  0  0  0  0  0  0  0  0
  1 22  1  0  0  0  0
  2 22  2  0  0  0  0
  3  4  1  0  0  0  0
  3  6  1  0  0  0  0
  3  9  1  0  0  0  0
  3 10  1  0  0  0  0
  4  5  1  0  0  0  0
  5  7  1  0  0  0  0
  6  8  2  0  0  0  0
  6 11  1  0  0  0  0
  7  8  1  0  0  0  0
  8 12  1  0  0  0  0
 11 13  2  0  0  0  0
 13 14  1  0  0  0  0
 14 15  1  0  0  0  0
 14 16  2  0  0  0  0
 16 17  1  0  0  0  0
 17 18  2  0  0  0  0
 18 19  1  0  0  0  0
 19 20  1  0  0  0  0
 19 21  2  0  0  0  0
 21 22  1  0  0  0  0
M  END
