1431
 OpenBabel10141417503D

 22 25  0  0  1  0  0  0  0  0999 V2000
   -4.5476    2.6556    0.2752 O   0  0  0  0  0  0  0  0  0  0  0  0
   -2.1736    3.1995    0.4433 C   0  0  1  0  0  0  0  0  0  0  0  0
   -2.2849    3.6957   -1.0214 C   0  0  2  0  0  0  0  0  0  0  0  0
   -1.4483    4.9163   -1.4249 C   0  0  1  0  0  0  0  0  0  0  0  0
   -1.7364    6.0816   -0.4263 C   0  0  2  0  0  0  0  0  0  0  0  0
   -3.2431    2.0514    0.3870 C   0  0  2  0  0  0  0  0  0  0  0  0
   -2.4948    4.3860    1.3654 C   0  0  0  0  0  0  0  0  0  0  0  0
   -2.2225    2.4149   -1.8473 C   0  0  0  0  0  0  0  0  0  0  0  0
   -1.6267    5.6218    1.0492 C   0  0  0  0  0  0  0  0  0  0  0  0
   -2.9268    1.3562   -0.9660 C   0  0  0  0  0  0  0  0  0  0  0  0
   -0.9193    7.3598   -0.7936 C   0  0  2  0  0  0  0  0  0  0  0  0
    0.0487    4.6645   -1.6434 C   0  0  0  0  0  0  0  0  0  0  0  0
   -0.7947    2.6215    0.8472 C   0  0  0  0  0  0  0  0  0  0  0  0
    0.7729    5.9331   -2.0775 C   0  0  0  0  0  0  0  0  0  0  0  0
    0.5354    7.0664   -1.1154 C   0  0  0  0  0  0  0  0  0  0  0  0
   -3.2709    1.0929    1.5979 C   0  0  0  0  0  0  0  0  0  0  0  0
   -1.0906    8.4997    0.2361 C   0  0  0  0  0  0  0  0  0  0  0  0
   -0.0763    9.6173    0.0165 C   0  0  0  0  0  0  0  0  0  0  0  0
    1.5480    7.8209   -0.6514 C   0  0  0  0  0  0  0  0  0  0  0  0
    1.3449    9.0711    0.1520 C   0  0  0  0  0  0  0  0  0  0  0  0
   -4.3032   -0.0064    1.4937 C   0  0  0  0  0  0  0  0  0  0  0  0
   -5.5107    0.0500    2.0662 C   0  0  0  0  0  0  0  0  0  0  0  0
  2  3  1  0  0  0  0
  2  6  1  0  0  0  0
  2  7  1  0  0  0  0
  2 13  1  6  0  0  0
  3  4  1  0  0  0  0
  3  8  1  1  0  0  0
  4  5  1  0  0  0  0
  4 12  1  1  0  0  0
  5  9  1  6  0  0  0
  5 11  1  0  0  0  0
  6 10  1  0  0  0  0
  6  1  1  6  0  0  0
  6 16  1  0  0  0  0
  7  9  1  0  0  0  0
  8 10  1  0  0  0  0
 11 15  1  1  0  0  0
 11 17  1  0  0  0  0
 12 14  1  0  0  0  0
 14 15  1  0  0  0  0
 15 19  2  0  0  0  0
 16 21  1  0  0  0  0
 17 18  1  0  0  0  0
 18 20  1  0  0  0  0
 19 20  1  0  0  0  0
 21 22  2  0  0  0  0
M  END
