
 OpenBabel10141417533D

 25 27  0  0  1  0  0  0  0  0999 V2000
    2.5334    2.4826   -3.2575 C   0  0  0  0  0  0  0  0  0  0  0  0
    3.8117    2.3299   -3.7913 C   0  0  0  0  0  0  0  0  0  0  0  0
    4.6874    1.4144   -3.2237 C   0  0  0  0  0  0  0  0  0  0  0  0
    4.2740    0.6275   -2.1472 C   0  0  0  0  0  0  0  0  0  0  0  0
    2.9686    0.7209   -1.6242 C   0  0  0  0  0  0  0  0  0  0  0  0
    2.1125    1.7004   -2.1678 C   0  0  0  0  0  0  0  0  0  0  0  0
    4.2965   -1.7279    0.1839 C   0  0  0  0  0  0  0  0  0  0  0  0
    3.1019   -1.5306   -0.5131 N   0  0  0  0  0  0  0  0  0  0  0  0
    2.5245   -0.1769   -0.4716 C   0  0  0  0  0  0  0  0  0  0  0  0
    4.8938   -2.9697    0.0452 N   0  0  0  0  0  0  0  0  0  0  0  0
    4.2883   -4.0398   -0.5662 C   0  0  0  0  0  0  0  0  0  0  0  0
    3.0074   -3.7657   -1.2210 C   0  0  0  0  0  0  0  0  0  0  0  0
    2.4533   -2.5461   -1.2071 C   0  0  0  0  0  0  0  0  0  0  0  0
    0.8002    1.9423   -1.6372 C   0  0  0  0  0  0  0  0  0  0  0  0
   -0.2637    2.1432   -1.2186 N   0  0  0  0  0  0  0  0  0  0  0  0
    4.8164   -0.8353    0.8601 O   0  0  0  0  0  0  0  0  0  0  0  0
    6.1883   -3.1934    0.6573 C   0  0  0  0  0  0  0  0  0  0  0  0
    4.7432   -5.1812   -0.6010 O   0  0  0  0  0  0  0  0  0  0  0  0
    1.2222   -2.3293   -1.8559 N   0  0  0  0  0  0  0  0  0  0  0  0
    1.2496   -1.9497   -3.2854 C   0  0  0  0  0  0  0  0  0  0  0  0
   -0.0703   -1.2937   -3.6901 C   0  0  0  0  0  0  0  0  0  0  0  0
   -1.2745   -2.1757   -3.3638 C   0  0  0  0  0  0  0  0  0  0  0  0
   -1.2538   -2.5920   -1.8879 C   0  0  2  0  0  0  0  0  0  0  0  0
    0.0978   -3.2568   -1.5551 C   0  0  0  0  0  0  0  0  0  0  0  0
   -2.3843   -3.4813   -1.5943 N   0  0  0  0  0  0  0  0  0  0  0  0
  1  2  2  0  0  0  0
  1  6  1  0  0  0  0
  2  3  1  0  0  0  0
  3  4  2  0  0  0  0
  4  5  1  0  0  0  0
  5  6  2  0  0  0  0
  5  9  1  0  0  0  0
  6 14  1  0  0  0  0
  7  8  1  0  0  0  0
  7 10  1  0  0  0  0
  7 16  2  0  0  0  0
  8  9  1  0  0  0  0
  8 13  1  0  0  0  0
 10 11  1  0  0  0  0
 10 17  1  0  0  0  0
 11 12  1  0  0  0  0
 11 18  2  0  0  0  0
 12 13  2  0  0  0  0
 13 19  1  0  0  0  0
 14 15  3  0  0  0  0
 19 20  1  0  0  0  0
 19 24  1  0  0  0  0
 20 21  1  0  0  0  0
 21 22  1  0  0  0  0
 22 23  1  0  0  0  0
 23 24  1  0  0  0  0
 23 25  1  6  0  0  0
M  END
