969
 OpenBabel10141417493D

 22 25  0  0  0  0  0  0  0  0999 V2000
    1.6106    0.4136   -0.9743 O   0  0  0  0  0  0  0  0  0  0  0  0
    3.3867   -0.6976    0.0043 N   0  0  0  0  0  0  0  0  0  0  0  0
    4.7724    3.1139    0.9507 N   0  0  0  0  0  0  0  0  0  0  0  0
    2.7854   -3.3478    1.8312 N   0  0  0  0  0  0  0  0  0  0  0  0
    0.7190   -3.0663    2.5683 N   0  0  0  0  0  0  0  0  0  0  0  0
    4.4956    1.7976    0.6853 C   0  0  0  0  0  0  0  0  0  0  0  0
    5.3545    0.6114    0.9414 C   0  0  0  0  0  0  0  0  0  0  0  0
    3.2523    1.7177    0.0903 C   0  0  0  0  0  0  0  0  0  0  0  0
    4.4514   -0.6397    1.0241 C   0  0  0  0  0  0  0  0  0  0  0  0
    2.7420    3.0447    0.0005 C   0  0  0  0  0  0  0  0  0  0  0  0
    3.7030    3.9011    0.5545 C   0  0  0  0  0  0  0  0  0  0  0  0
    2.6576    0.4519   -0.3414 C   0  0  0  0  0  0  0  0  0  0  0  0
    2.7683   -1.9953   -0.2762 C   0  0  0  0  0  0  0  0  0  0  0  0
    5.9856    3.6342    1.5439 C   0  0  0  0  0  0  0  0  0  0  0  0
    1.5466    3.5989   -0.5004 C   0  0  0  0  0  0  0  0  0  0  0  0
    3.4975    5.2906    0.6287 C   0  0  0  0  0  0  0  0  0  0  0  0
    2.0878   -2.5490    0.9414 C   0  0  0  0  0  0  0  0  0  0  0  0
    1.3371    4.9788   -0.4342 C   0  0  0  0  0  0  0  0  0  0  0  0
    2.3008    5.8113    0.1244 C   0  0  0  0  0  0  0  0  0  0  0  0
    0.7798   -2.3970    1.3723 C   0  0  0  0  0  0  0  0  0  0  0  0
   -0.3875   -1.6869    0.8029 C   0  0  0  0  0  0  0  0  0  0  0  0
    1.9379   -3.6358    2.7909 C   0  0  0  0  0  0  0  0  0  0  0  0
  1 12  2  0  0  0  0
  2  9  1  0  0  0  0
  2 12  1  0  0  0  0
  2 13  1  0  0  0  0
  3  6  1  0  0  0  0
  3 11  1  0  0  0  0
  3 14  1  0  0  0  0
  4 17  1  0  0  0  0
  4 22  2  0  0  0  0
  5 20  1  0  0  0  0
  5 22  1  0  0  0  0
  6  7  1  0  0  0  0
  6  8  2  0  0  0  0
  7  9  1  0  0  0  0
  8 10  1  0  0  0  0
  8 12  1  0  0  0  0
 10 11  1  0  0  0  0
 10 15  2  0  0  0  0
 11 16  2  0  0  0  0
 13 17  1  0  0  0  0
 15 18  1  0  0  0  0
 16 19  1  0  0  0  0
 17 20  2  0  0  0  0
 18 19  2  0  0  0  0
 20 21  1  0  0  0  0
M  END
