132
 OpenBabel10141417483D

 20 19  0  0  0  0  0  0  0  0999 V2000
    4.8693   -5.4613    4.1719 O   0  0  0  0  0  0  0  0  0  0  0  0
    4.4038   -3.4821    5.1572 O   0  0  0  0  0  0  0  0  0  0  0  0
    7.4910   -1.2332    0.8813 C   0  0  0  0  0  0  0  0  0  0  0  0
    7.9385   -1.0103   -0.5950 C   0  0  0  0  0  0  0  0  0  0  0  0
    6.3621   -2.2880    1.0733 C   0  0  0  0  0  0  0  0  0  0  0  0
    9.0203    0.0913   -0.7875 C   0  0  0  0  0  0  0  0  0  0  0  0
    5.9866   -2.5454    2.5615 C   0  0  0  0  0  0  0  0  0  0  0  0
    9.4490    0.2812   -2.2591 C   0  0  0  0  0  0  0  0  0  0  0  0
    4.8561   -3.5854    2.7250 C   0  0  0  0  0  0  0  0  0  0  0  0
   10.5209    1.3176   -2.4507 C   0  0  0  0  0  0  0  0  0  0  0  0
    4.6962   -4.1165    4.1273 C   0  0  0  0  0  0  0  0  0  0  0  0
   10.4626    2.4304   -3.1977 C   0  0  0  0  0  0  0  0  0  0  0  0
    9.3061    3.0623   -3.9145 C   0  0  0  0  0  0  0  0  0  0  0  0
    9.2216    4.5714   -3.7955 C   0  0  0  0  0  0  0  0  0  0  0  0
   10.1841    5.5063   -3.6677 C   0  0  0  0  0  0  0  0  0  0  0  0
   11.6677    5.2838   -3.6684 C   0  0  0  0  0  0  0  0  0  0  0  0
   12.4604    6.5399   -3.5130 C   0  0  0  0  0  0  0  0  0  0  0  0
   13.6739    6.8075   -4.0218 C   0  0  0  0  0  0  0  0  0  0  0  0
   14.6023    5.9380   -4.8292 C   0  0  0  0  0  0  0  0  0  0  0  0
   14.5714    4.4373   -4.5645 C   0  0  0  0  0  0  0  0  0  0  0  0
  1 11  1  0  0  0  0
  2 11  2  0  0  0  0
  3  4  1  0  0  0  0
  3  5  1  0  0  0  0
  4  6  1  0  0  0  0
  5  7  1  0  0  0  0
  6  8  1  0  0  0  0
  7  9  1  0  0  0  0
  8 10  1  0  0  0  0
  9 11  1  0  0  0  0
 10 12  2  0  0  0  0
 12 13  1  0  0  0  0
 13 14  1  0  0  0  0
 14 15  2  0  0  0  0
 15 16  1  0  0  0  0
 16 17  1  0  0  0  0
 17 18  2  0  0  0  0
 18 19  1  0  0  0  0
 19 20  1  0  0  0  0
M  END
