866
 OpenBabel10141417503D

 18 18  0  0  1  0  0  0  0  0999 V2000
    0.5696   -0.3706   -0.1480 O   0  0  0  0  0  0  0  0  0  0  0  0
   -1.7332    1.9491    1.5417 O   0  0  0  0  0  0  0  0  0  0  0  0
   -3.5358    0.9705   -0.5705 N   0  0  0  0  0  0  0  0  0  0  0  0
   -1.3693    0.8265    0.7282 C   0  0  3  0  0  0  0  0  0  0  0  0
   -2.0532    0.9437   -0.6564 C   0  0  0  0  0  0  0  0  0  0  0  0
   -4.1755    1.0538   -1.9020 C   0  0  0  0  0  0  0  0  0  0  0  0
    0.1710    0.7665    0.6223 C   0  0  0  0  0  0  0  0  0  0  0  0
   -3.8534   -0.1469   -2.7950 C   0  0  0  0  0  0  0  0  0  0  0  0
   -5.7007    1.1450   -1.7510 C   0  0  0  0  0  0  0  0  0  0  0  0
    1.7608   -0.2762   -0.8228 C   0  0  0  0  0  0  0  0  0  0  0  0
    1.8588   -1.0068   -2.0192 C   0  0  0  0  0  0  0  0  0  0  0  0
    0.7392   -1.9118   -2.4970 C   0  0  0  0  0  0  0  0  0  0  0  0
    2.8651    0.4539   -0.3694 C   0  0  0  0  0  0  0  0  0  0  0  0
    3.0412   -0.9368   -2.7784 C   0  0  0  0  0  0  0  0  0  0  0  0
    4.0420    0.5009   -1.1273 C   0  0  0  0  0  0  0  0  0  0  0  0
    4.1244   -0.1790   -2.3390 C   0  0  0  0  0  0  0  0  0  0  0  0
    0.8701   -3.3057   -1.9585 C   0  0  0  0  0  0  0  0  0  0  0  0
    1.4994   -4.3163   -2.6032 C   0  0  0  0  0  0  0  0  0  0  0  0
  1  7  1  0  0  0  0
  1 10  1  0  0  0  0
  2  4  1  0  0  0  0
  3  5  1  0  0  0  0
  3  6  1  0  0  0  0
  4  5  1  0  0  0  0
  4  7  1  0  0  0  0
  6  8  1  0  0  0  0
  6  9  1  0  0  0  0
 10 11  1  0  0  0  0
 10 13  2  0  0  0  0
 11 12  1  0  0  0  0
 11 14  2  0  0  0  0
 12 17  1  0  0  0  0
 13 15  1  0  0  0  0
 14 16  1  0  0  0  0
 15 16  2  0  0  0  0
 17 18  2  0  0  0  0
M  END
