404
 OpenBabel10141417533D

 22 25  0  0  0  0  0  0  0  0999 V2000
    1.0607   -0.0978    0.4512 Cl  0  0  0  0  0  0  0  0  0  0  0  0
    6.9893    0.0652    0.1535 N   0  0  0  0  0  0  0  0  0  0  0  0
    6.6220   -2.9512    0.0774 N   0  0  0  0  0  0  0  0  0  0  0  0
    9.0617   -0.5136    0.6383 N   0  0  0  0  0  0  0  0  0  0  0  0
    9.0846    0.7529    0.1257 N   0  0  0  0  0  0  0  0  0  0  0  0
    5.5713    0.0173    0.1372 C   0  0  0  0  0  0  0  0  0  0  0  0
    4.8818   -1.1965   -0.0575 C   0  0  0  0  0  0  0  0  0  0  0  0
    7.8145   -0.9315    0.6289 C   0  0  0  0  0  0  0  0  0  0  0  0
    5.5541   -2.4735   -0.4654 C   0  0  0  0  0  0  0  0  0  0  0  0
    7.2971   -2.2201    1.1407 C   0  0  0  0  0  0  0  0  0  0  0  0
    7.8516    1.0952   -0.1893 C   0  0  0  0  0  0  0  0  0  0  0  0
    4.8424    1.1890    0.4031 C   0  0  0  0  0  0  0  0  0  0  0  0
    3.4803   -1.2227    0.0591 C   0  0  0  0  0  0  0  0  0  0  0  0
    4.9556   -3.2667   -1.5890 C   0  0  0  0  0  0  0  0  0  0  0  0
    3.4482    1.1521    0.4896 C   0  0  0  0  0  0  0  0  0  0  0  0
    2.7747   -0.0530    0.3257 C   0  0  0  0  0  0  0  0  0  0  0  0
    7.4922    2.3402   -0.9081 C   0  0  0  0  0  0  0  0  0  0  0  0
    4.3916   -2.6351   -2.7051 C   0  0  0  0  0  0  0  0  0  0  0  0
    4.9953   -4.6650   -1.5293 C   0  0  0  0  0  0  0  0  0  0  0  0
    3.8440   -3.4008   -3.7367 C   0  0  0  0  0  0  0  0  0  0  0  0
    4.4469   -5.4258   -2.5629 C   0  0  0  0  0  0  0  0  0  0  0  0
    3.8681   -4.7935   -3.6628 C   0  0  0  0  0  0  0  0  0  0  0  0
  1 16  1  0  0  0  0
  2  6  1  0  0  0  0
  2  8  1  0  0  0  0
  2 11  1  0  0  0  0
  3  9  2  0  0  0  0
  3 10  1  0  0  0  0
  4  5  1  0  0  0  0
  4  8  2  0  0  0  0
  5 11  2  0  0  0  0
  6  7  2  0  0  0  0
  6 12  1  0  0  0  0
  7  9  1  0  0  0  0
  7 13  1  0  0  0  0
  8 10  1  0  0  0  0
  9 14  1  0  0  0  0
 11 17  1  0  0  0  0
 12 15  2  0  0  0  0
 13 16  2  0  0  0  0
 14 18  2  0  0  0  0
 14 19  1  0  0  0  0
 15 16  1  0  0  0  0
 18 20  1  0  0  0  0
 19 21  2  0  0  0  0
 20 22  2  0  0  0  0
 21 22  1  0  0  0  0
M  END
