10176082
 OpenBabel10141417483D

  4  0  0  0  0  0  0  0  0  0999 V2000
    0.1530   -1.4218   -0.0265 Al  0  1  0  0  0 15  0  0  0  0  0  0
    2.3010    0.5920   -2.4938 O   0  5  0  0  0  0  0  0  0  0  0  0
    2.1308    0.2684    2.7133 O   0  5  0  0  0  0  0  0  0  0  0  0
    0.9399    2.1711    0.0154 O   0  5  0  0  0  0  0  0  0  0  0  0
M  CHG  4   1   3   2  -1   3  -1   4  -1
M  END
