1616
 OpenBabel10141417493D

 21 22  0  0  0  0  0  0  0  0999 V2000
    1.4030   -0.7224   -0.1686 N   0  0  0  0  0  0  0  0  0  0  0  0
    1.5860   -0.0796   -1.4925 C   0  0  0  0  0  0  0  0  0  0  0  0
    0.8799   -2.0954   -0.3277 C   0  0  0  0  0  0  0  0  0  0  0  0
    2.1111    1.3691   -1.4394 C   0  0  0  0  0  0  0  0  0  0  0  0
    0.6626   -2.9176    0.9587 C   0  0  0  0  0  0  0  0  0  0  0  0
    2.5647   -0.6134    0.7253 C   0  0  0  0  0  0  0  0  0  0  0  0
    2.2612    1.9992   -2.8340 C   0  0  0  0  0  0  0  0  0  0  0  0
   -0.2977   -2.2625    1.9575 C   0  0  0  0  0  0  0  0  0  0  0  0
    3.8906   -1.1660    0.2138 C   0  0  0  0  0  0  0  0  0  0  0  0
    2.8366    3.4000   -2.7773 C   0  0  0  0  0  0  0  0  0  0  0  0
   -0.4664   -3.1052    3.2024 C   0  0  0  0  0  0  0  0  0  0  0  0
    2.1089    4.5030   -3.2521 C   0  0  0  0  0  0  0  0  0  0  0  0
    0.4029   -2.9518    4.2903 C   0  0  0  0  0  0  0  0  0  0  0  0
    4.1201    3.6222   -2.2590 C   0  0  0  0  0  0  0  0  0  0  0  0
   -1.4769   -4.0749    3.2751 C   0  0  0  0  0  0  0  0  0  0  0  0
    2.6463    5.7927   -3.1718 C   0  0  0  0  0  0  0  0  0  0  0  0
    0.2641   -3.7478    5.4297 C   0  0  0  0  0  0  0  0  0  0  0  0
    4.6571    4.9093   -2.1840 C   0  0  0  0  0  0  0  0  0  0  0  0
   -1.6127   -4.8719    4.4144 C   0  0  0  0  0  0  0  0  0  0  0  0
    3.9127    5.9976   -2.6356 C   0  0  0  0  0  0  0  0  0  0  0  0
   -0.7434   -4.7103    5.4902 C   0  0  0  0  0  0  0  0  0  0  0  0
  1  2  1  0  0  0  0
  1  3  1  0  0  0  0
  1  6  1  0  0  0  0
  2  4  1  0  0  0  0
  3  5  1  0  0  0  0
  4  7  1  0  0  0  0
  5  8  1  0  0  0  0
  6  9  1  0  0  0  0
  7 10  1  0  0  0  0
  8 11  1  0  0  0  0
 10 12  2  0  0  0  0
 10 14  1  0  0  0  0
 11 13  2  0  0  0  0
 11 15  1  0  0  0  0
 12 16  1  0  0  0  0
 13 17  1  0  0  0  0
 14 18  2  0  0  0  0
 15 19  2  0  0  0  0
 16 20  2  0  0  0  0
 17 21  2  0  0  0  0
 18 20  1  0  0  0  0
 19 21  1  0  0  0  0
M  END
