1122
 OpenBabel10141417543D

 36 37  0  0  0  0  0  0  0  0999 V2000
   10.3828    4.4446    4.7131 Cl  0  0  0  0  0  0  0  0  0  0  0  0
    0.2382    4.2686    9.2861 Cl  0  0  0  0  0  0  0  0  0  0  0  0
    7.9168    2.6187    5.3545 O   0  0  0  0  0  0  0  0  0  0  0  0
    5.0495    0.8873    6.1613 O   0  0  0  0  0  0  0  0  0  0  0  0
   11.5422    0.5850    4.4816 N   0  3  0  0  0  0  0  0  0  0  0  0
    2.0718    5.1212    5.7468 N   0  3  0  0  0  0  0  0  0  0  0  0
    7.6538    0.3280    5.4046 N   0  0  0  0  0  0  0  0  0  0  0  0
    5.4621    3.1781    6.0642 N   0  0  0  0  0  0  0  0  0  0  0  0
   10.0602    0.9718    4.7749 C   0  0  0  0  0  0  0  0  0  0  0  0
    3.5293    4.6419    5.4681 C   0  0  0  0  0  0  0  0  0  0  0  0
   12.3426    1.9856    4.2511 C   0  0  0  0  0  0  0  0  0  0  0  0
    2.0098    5.8333    7.1755 C   0  0  0  0  0  0  0  0  0  0  0  0
   11.6483   -0.2820    3.2226 C   0  0  0  0  0  0  0  0  0  0  0  0
   12.2086   -0.0693    5.7401 C   0  0  0  0  0  0  0  0  0  0  0  0
    1.7429    6.2276    4.6638 C   0  0  0  0  0  0  0  0  0  0  0  0
    0.9935    4.0091    5.5923 C   0  0  0  0  0  0  0  0  0  0  0  0
    9.0031   -0.1522    5.0454 C   0  0  0  0  0  0  0  0  0  0  0  0
    4.1450    3.6235    6.4516 C   0  0  0  0  0  0  0  0  0  0  0  0
   12.0118    2.9345    3.0986 C   0  0  0  0  0  0  0  0  0  0  0  0
    0.6712    6.3964    7.6065 C   0  0  0  0  0  0  0  0  0  0  0  0
   13.0712   -0.6887    2.8471 C   0  0  0  0  0  0  0  0  0  0  0  0
   11.6488   -1.4143    6.1837 C   0  0  0  0  0  0  0  0  0  0  0  0
    1.8490    5.7484    3.2143 C   0  0  0  0  0  0  0  0  0  0  0  0
    1.1248    2.7791    6.4720 C   0  0  0  0  0  0  0  0  0  0  0  0
   11.1035    4.0092    3.2038 C   0  0  0  0  0  0  0  0  0  0  0  0
   -0.2360    5.6643    8.3914 C   0  0  0  0  0  0  0  0  0  0  0  0
   12.7743    2.8850    1.9106 C   0  0  0  0  0  0  0  0  0  0  0  0
    0.2641    7.6699    7.1623 C   0  0  0  0  0  0  0  0  0  0  0  0
    7.2511    1.6249    5.5579 C   0  0  0  0  0  0  0  0  0  0  0  0
    5.7941    1.8531    5.9698 C   0  0  0  0  0  0  0  0  0  0  0  0
   10.8597    4.8854    2.1298 C   0  0  0  0  0  0  0  0  0  0  0  0
   -1.5674    6.0676    8.5080 C   0  0  0  0  0  0  0  0  0  0  0  0
   12.6064    3.8271    0.8800 C   0  0  0  0  0  0  0  0  0  0  0  0
   -1.0652    8.0808    7.2928 C   0  0  0  0  0  0  0  0  0  0  0  0
   11.6232    4.8041    0.9714 C   0  0  0  0  0  0  0  0  0  0  0  0
   -1.9932    7.2506    7.9125 C   0  0  0  0  0  0  0  0  0  0  0  0
  1 25  1  0  0  0  0
  2 26  1  0  0  0  0
  3 29  2  0  0  0  0
  4 30  2  0  0  0  0
  5  9  1  0  0  0  0
  5 11  1  0  0  0  0
  5 13  1  0  0  0  0
  5 14  1  0  0  0  0
  6 10  1  0  0  0  0
  6 12  1  0  0  0  0
  6 15  1  0  0  0  0
  6 16  1  0  0  0  0
  7 17  1  0  0  0  0
  7 29  1  0  0  0  0
  8 18  1  0  0  0  0
  8 30  1  0  0  0  0
  9 17  1  0  0  0  0
 10 18  1  0  0  0  0
 11 19  1  0  0  0  0
 12 20  1  0  0  0  0
 13 21  1  0  0  0  0
 14 22  1  0  0  0  0
 15 23  1  0  0  0  0
 16 24  1  0  0  0  0
 19 25  1  0  0  0  0
 19 27  2  0  0  0  0
 20 26  1  0  0  0  0
 20 28  2  0  0  0  0
 25 31  2  0  0  0  0
 26 32  2  0  0  0  0
 27 33  1  0  0  0  0
 28 34  1  0  0  0  0
 29 30  1  0  0  0  0
 31 35  1  0  0  0  0
 32 36  1  0  0  0  0
 33 35  2  0  0  0  0
 34 36  2  0  0  0  0
M  CHG  2   5   1   6   1
M  END
