288
 OpenBabel10141417513D

 36 41  0  0  1  0  0  0  0  0999 V2000
    7.3665    2.3008   -8.0968 F   0  0  0  0  0  0  0  0  0  0  0  0
    8.9648   -0.1099   -6.7231 O   0  0  0  0  0  0  0  0  0  0  0  0
    8.5977    2.7961   -6.7158 O   0  0  0  0  0  0  0  0  0  0  0  0
    7.3365   -1.0322   -8.0649 O   0  0  0  0  0  0  0  0  0  0  0  0
    9.1043   -0.2308   -3.0393 O   0  0  0  0  0  0  0  0  0  0  0  0
    9.0791   -3.0055   -3.1129 O   0  0  0  0  0  0  0  0  0  0  0  0
   12.5008    3.1171   -2.8508 O   0  0  0  0  0  0  0  0  0  0  0  0
   11.3472   -3.0869   -3.4686 O   0  0  0  0  0  0  0  0  0  0  0  0
    6.4065    0.1030   -5.1301 C   0  0  1  0  0  0  0  0  0  0  0  0
    5.9750    1.6497   -4.9405 C   0  0  2  0  0  0  0  0  0  0  0  0
    8.1034    0.1375   -5.2312 C   0  0  1  0  0  0  0  0  0  0  0  0
    6.3754    2.4701   -6.1443 C   0  0  1  0  0  0  0  0  0  0  0  0
    8.1625    1.8778   -4.9515 C   0  0  1  0  0  0  0  0  0  0  0  0
    7.6466    1.4537   -6.8036 C   0  0  1  0  0  0  0  0  0  0  0  0
    6.9736    2.1892   -4.0155 C   0  0  0  0  0  0  0  0  0  0  0  0
    5.8098   -0.4165   -6.4026 C   0  0  0  0  0  0  0  0  0  0  0  0
    6.7243    0.1079   -7.4554 C   0  0  2  0  0  0  0  0  0  0  0  0
    9.7202    1.8480   -6.0032 C   0  0  1  0  0  0  0  0  0  0  0  0
    6.8677    4.0567   -5.8886 C   0  0  0  0  0  0  0  0  0  0  0  0
    5.7460   -0.6720   -3.9783 C   0  0  0  0  0  0  0  0  0  0  0  0
    9.2602    1.2996   -7.8324 C   0  0  0  0  0  0  0  0  0  0  0  0
    8.7140   -0.7404   -4.0946 C   0  0  0  0  0  0  0  0  0  0  0  0
    8.3750    4.4964   -5.2367 C   0  0  0  0  0  0  0  0  0  0  0  0
    9.6637    3.4916   -4.9838 C   0  0  0  0  0  0  0  0  0  0  0  0
    8.6645    1.2403   -9.3845 C   0  0  0  0  0  0  0  0  0  0  0  0
   10.7876    0.8979   -8.2966 C   0  0  0  0  0  0  0  0  0  0  0  0
   10.8545    2.9812   -6.9148 C   0  0  0  0  0  0  0  0  0  0  0  0
   10.8200    0.9876   -5.2330 C   0  0  0  0  0  0  0  0  0  0  0  0
    9.7292    0.7552  -10.3591 C   0  0  0  0  0  0  0  0  0  0  0  0
   10.6614   -0.0339   -9.4950 C   0  0  0  0  0  0  0  0  0  0  0  0
    8.7330   -2.2700   -4.2936 C   0  0  0  0  0  0  0  0  0  0  0  0
   10.5495    3.7345   -3.9965 C   0  0  0  0  0  0  0  0  0  0  0  0
   11.6530    1.4455   -4.2800 C   0  0  0  0  0  0  0  0  0  0  0  0
   11.6385    2.7957   -3.6627 C   0  0  0  0  0  0  0  0  0  0  0  0
   10.3849   -2.9183   -2.7351 C   0  0  0  0  0  0  0  0  0  0  0  0
   10.4526   -2.5417   -1.2857 C   0  0  0  0  0  0  0  0  0  0  0  0
  2 11  1  0  0  0  0
  2 21  1  0  0  0  0
  3 21  1  0  0  0  0
  5 22  2  0  0  0  0
  6 31  1  0  0  0  0
  6 35  1  0  0  0  0
  7 34  2  0  0  0  0
  8 35  2  0  0  0  0
  9 10  1  0  0  0  0
  9 11  1  0  0  0  0
  9 16  1  0  0  0  0
  9 20  1  6  0  0  0
 10 12  1  0  0  0  0
 10 15  1  1  0  0  0
 11 13  1  0  0  0  0
 11 22  1  6  0  0  0
 12 14  1  0  0  0  0
 12 19  1  6  0  0  0
 13  3  1  1  0  0  0
 13 15  1  0  0  0  0
 14 17  1  0  0  0  0
 14 18  1  0  0  0  0
 14  1  1  6  0  0  0
 16 17  1  0  0  0  0
 17  4  1  1  0  0  0
 18 24  1  0  0  0  0
 18 28  1  0  0  0  0
 18 27  1  1  0  0  0
 19 23  1  0  0  0  0
 21 25  1  0  0  0  0
 21 26  1  0  0  0  0
 22 31  1  0  0  0  0
 23 24  1  0  0  0  0
 24 32  2  0  0  0  0
 25 29  1  0  0  0  0
 26 30  1  0  0  0  0
 28 33  2  0  0  0  0
 29 30  1  0  0  0  0
 32 34  1  0  0  0  0
 33 34  1  0  0  0  0
 35 36  1  0  0  0  0
M  END
