1143
 OpenBabel10141417483D

 12 11  0  0  0  0  0  0  0  0999 V2000
    0.6769   -0.3916   -0.2709 S   0  0  0  0  0  0  0  0  0  0  0  0
   -0.1078    0.1888   -2.0914 P   0  0  0  0  0  0  0  0  0  0  0  0
   -0.0814   -1.0137   -3.1508 O   0  0  0  0  0  0  0  0  0  0  0  0
   -1.6889    0.4284   -1.9855 O   0  0  0  0  0  0  0  0  0  0  0  0
    0.5516    1.3910   -2.6803 O   0  0  0  0  0  0  0  0  0  0  0  0
    4.5578   -0.5581   -1.5958 N   0  0  0  0  0  0  0  0  0  0  0  0
    7.1657   -3.2820   -3.7926 N   0  0  0  0  0  0  0  0  0  0  0  0
    5.1493   -1.3370   -2.6919 C   0  0  0  0  0  0  0  0  0  0  0  0
    6.6506   -1.0664   -2.8020 C   0  0  0  0  0  0  0  0  0  0  0  0
    3.1178   -0.8449   -1.5094 C   0  0  0  0  0  0  0  0  0  0  0  0
    2.4548   -0.0406   -0.3879 C   0  0  0  0  0  0  0  0  0  0  0  0
    7.2937   -1.8387   -3.9570 C   0  0  0  0  0  0  0  0  0  0  0  0
  1  2  1  0  0  0  0
  1 11  1  0  0  0  0
  2  3  1  0  0  0  0
  2  4  1  0  0  0  0
  2  5  2  0  0  0  0
  6  8  1  0  0  0  0
  6 10  1  0  0  0  0
  7 12  1  0  0  0  0
  8  9  1  0  0  0  0
  9 12  1  0  0  0  0
 10 11  1  0  0  0  0
M  END
