479
 OpenBabel10141417513D

 40 42  0  0  1  0  0  0  0  0999 V2000
    7.5010    7.7825    3.5097 O   0  0  0  0  0  0  0  0  0  0  0  0
    3.7861    5.4113    1.3959 O   0  0  0  0  0  0  0  0  0  0  0  0
    6.2475    4.9759    2.7970 O   0  0  0  0  0  0  0  0  0  0  0  0
    8.0760    6.3735    1.7146 O   0  0  0  0  0  0  0  0  0  0  0  0
    5.3507    6.4425   -0.0382 O   0  0  0  0  0  0  0  0  0  0  0  0
    9.1762    8.9738    1.7475 O   0  0  0  0  0  0  0  0  0  0  0  0
    4.0826    4.1392   -1.1945 O   0  0  0  0  0  0  0  0  0  0  0  0
    9.7794    7.3495   -0.4453 O   0  0  0  0  0  0  0  0  0  0  0  0
    2.7163    7.3539   -2.3477 O   0  0  0  0  0  0  0  0  0  0  0  0
    5.8730    5.5270   -2.8188 O   0  0  0  0  0  0  0  0  0  0  0  0
    6.5084   10.8554    4.6391 O   0  0  0  0  0  0  0  0  0  0  0  0
   10.2482    4.1269    2.5131 O   0  0  0  0  0  0  0  0  0  0  0  0
    7.6764    9.9426    7.5307 O   0  0  0  0  0  0  0  0  0  0  0  0
    5.6074    8.9477    5.5678 N   0  0  0  0  0  0  0  0  0  0  0  0
    1.8981    7.0302    2.9809 N   0  0  0  0  0  0  0  0  0  0  0  0
   11.7012    6.3685    2.5963 N   0  0  0  0  0  0  0  0  0  0  0  0
    3.9957    9.1574   -0.7076 N   0  0  0  0  0  0  0  0  0  0  0  0
    5.8204   14.4182    7.0801 N   0  0  0  0  0  0  0  0  0  0  0  0
    6.2438    7.1435    3.9174 C   0  0  1  0  0  0  0  0  0  0  0  0
    4.1492    6.0431    2.6594 C   0  0  1  0  0  0  0  0  0  0  0  0
    5.2574    8.2954    4.2983 C   0  0  1  0  0  0  0  0  0  0  0  0
    5.6566    6.2873    2.7737 C   0  0  2  0  0  0  0  0  0  0  0  0
    3.3419    7.3049    2.9910 C   0  0  2  0  0  0  0  0  0  0  0  0
    3.7938    7.8292    4.3608 C   0  0  0  0  0  0  0  0  0  0  0  0
    8.5429    6.9427    2.9299 C   0  0  1  0  0  0  0  0  0  0  0  0
    3.9720    6.1730    0.1850 C   0  0  1  0  0  0  0  0  0  0  0  0
    9.7116    7.8933    2.5635 C   0  0  1  0  0  0  0  0  0  0  0  0
   10.8209    7.1863    1.7449 C   0  0  2  0  0  0  0  0  0  0  0  0
    3.4086    5.4057   -1.0378 C   0  0  1  0  0  0  0  0  0  0  0  0
   10.2016    6.3992    0.5576 C   0  0  1  0  0  0  0  0  0  0  0  0
    3.6193    6.2489   -2.3137 C   0  0  2  0  0  0  0  0  0  0  0  0
    8.9703    5.5762    0.9439 C   0  0  1  0  0  0  0  0  0  0  0  0
    5.0907    6.6843   -2.4625 C   0  0  1  0  0  0  0  0  0  0  0  0
    5.6738    7.2659   -1.1656 C   0  0  1  0  0  0  0  0  0  0  0  0
    6.2166   10.1883    5.6374 C   0  0  0  0  0  0  0  0  0  0  0  0
    9.2327    4.1723    1.5189 C   0  0  0  0  0  0  0  0  0  0  0  0
    5.3989    8.7705   -0.9250 C   0  0  0  0  0  0  0  0  0  0  0  0
    6.5203   10.6537    7.0721 C   0  0  2  0  0  0  0  0  0  0  0  0
    6.7716   12.1596    7.2175 C   0  0  0  0  0  0  0  0  0  0  0  0
    5.5639   13.0052    6.8149 C   0  0  0  0  0  0  0  0  0  0  0  0
  4 25  1  0  0  0  0
  4 32  1  0  0  0  0
  5 26  1  0  0  0  0
  5 34  1  0  0  0  0
 11 35  2  0  0  0  0
 12 36  1  0  0  0  0
 14 35  1  0  0  0  0
 17 37  1  0  0  0  0
 18 40  1  0  0  0  0
 19 21  1  0  0  0  0
 19 22  1  0  0  0  0
 19  1  1  6  0  0  0
 20  2  1  6  0  0  0
 20 22  1  0  0  0  0
 20 23  1  0  0  0  0
 21 24  1  0  0  0  0
 21 14  1  1  0  0  0
 22  3  1  1  0  0  0
 23 24  1  0  0  0  0
 23 15  1  1  0  0  0
 25 27  1  0  0  0  0
 25  1  1  6  0  0  0
 26 29  1  0  0  0  0
 26  2  1  1  0  0  0
 27 28  1  0  0  0  0
 27  6  1  6  0  0  0
 28 16  1  1  0  0  0
 28 30  1  0  0  0  0
 29 31  1  0  0  0  0
 29  7  1  6  0  0  0
 30 32  1  0  0  0  0
 30  8  1  6  0  0  0
 31  9  1  1  0  0  0
 31 33  1  0  0  0  0
 32 36  1  1  0  0  0
 33 34  1  0  0  0  0
 33 10  1  1  0  0  0
 34 37  1  1  0  0  0
 35 38  1  0  0  0  0
 38 13  1  6  0  0  0
 38 39  1  0  0  0  0
 39 40  1  0  0  0  0
M  END
