513
 OpenBabel10141417543D

  9  8  0  0  0  0  0  0  0  0999 V2000
    1.7619    2.7825    1.6311 O   0  0  0  0  0  0  0  0  0  0  0  0
    3.5833    3.3934    0.5024 O   0  0  0  0  0  0  0  0  0  0  0  0
    8.9753    0.6507    3.2039 N   0  0  0  0  0  0  0  0  0  0  0  0
    5.3630    1.0373    2.0651 C   0  0  0  0  0  0  0  0  0  0  0  0
    4.6190    0.6656    0.7782 C   0  0  0  0  0  0  0  0  0  0  0  0
    6.8408    0.6467    1.9959 C   0  0  0  0  0  0  0  0  0  0  0  0
    3.1331    1.0176    0.8400 C   0  0  0  0  0  0  0  0  0  0  0  0
    7.5716    1.0371    3.2804 C   0  0  0  0  0  0  0  0  0  0  0  0
    2.8941    2.4998    0.9567 C   0  0  0  0  0  0  0  0  0  0  0  0
  1  9  1  0  0  0  0
  2  9  2  0  0  0  0
  3  8  1  0  0  0  0
  4  5  1  0  0  0  0
  4  6  1  0  0  0  0
  5  7  1  0  0  0  0
  6  8  1  0  0  0  0
  7  9  1  0  0  0  0
M  END
