2148
 OpenBabel10141417483D

 14 14  0  0  0  0  0  0  0  0999 V2000
    2.9612   -0.1259   -0.3365 O   0  0  0  0  0  0  0  0  0  0  0  0
    1.4684   -1.8136    1.7471 O   0  0  0  0  0  0  0  0  0  0  0  0
   -0.6635   -2.3398    1.2437 O   0  0  0  0  0  0  0  0  0  0  0  0
    1.1772    0.7391    0.7629 N   0  0  0  0  0  0  0  0  0  0  0  0
    5.8886    4.7107    2.6341 N   0  0  0  0  0  0  0  0  0  0  0  0
    3.3555    1.8357    0.9104 C   0  0  0  0  0  0  0  0  0  0  0  0
    2.4909    0.7686    0.3508 C   0  0  0  0  0  0  0  0  0  0  0  0
    2.8520    3.0867    1.2694 C   0  0  0  0  0  0  0  0  0  0  0  0
    4.7130    1.5528    1.1015 C   0  0  0  0  0  0  0  0  0  0  0  0
    5.0754    3.7927    1.9628 C   0  0  0  0  0  0  0  0  0  0  0  0
    3.7092    4.0490    1.8112 C   0  0  0  0  0  0  0  0  0  0  0  0
    5.5598    2.5216    1.6472 C   0  0  0  0  0  0  0  0  0  0  0  0
    0.2509   -0.2942    0.3064 C   0  0  0  0  0  0  0  0  0  0  0  0
    0.2738   -1.5643    1.1583 C   0  0  0  0  0  0  0  0  0  0  0  0
  1  7  2  0  0  0  0
  2 14  1  0  0  0  0
  3 14  2  0  0  0  0
  4  7  1  0  0  0  0
  4 13  1  0  0  0  0
  5 10  1  0  0  0  0
  6  7  1  0  0  0  0
  6  8  2  0  0  0  0
  6  9  1  0  0  0  0
  8 11  1  0  0  0  0
  9 12  2  0  0  0  0
 10 11  2  0  0  0  0
 10 12  1  0  0  0  0
 13 14  1  0  0  0  0
M  END
