1118
 OpenBabel10141417533D

 31 33  0  0  0  0  0  0  0  0999 V2000
    2.0028    2.6350    0.3391 I   0  0  0  0  0  0  0  0  0  0  0  0
    6.8550    3.7973    3.8759 I   0  0  0  0  0  0  0  0  0  0  0  0
    5.7188    5.3623   -4.9561 O   0  0  0  0  0  0  0  0  0  0  0  0
    4.5161    1.7231    2.9201 O   0  0  0  0  0  0  0  0  0  0  0  0
    7.3976    5.8720   -1.0645 O   0  0  0  0  0  0  0  0  0  0  0  0
    0.8082    2.0419    4.0348 N   0  0  0  0  0  0  0  0  0  0  0  0
    7.8824    6.0396   -4.2836 C   0  0  0  0  0  0  0  0  0  0  0  0
    6.5238    5.5476   -3.8700 C   0  0  0  0  0  0  0  0  0  0  0  0
    5.8272    5.2297   -2.6821 C   0  0  0  0  0  0  0  0  0  0  0  0
    8.2880    5.5684   -5.7076 C   0  0  0  0  0  0  0  0  0  0  0  0
    4.4599    4.9548   -3.1581 C   0  0  0  0  0  0  0  0  0  0  0  0
    4.5152    4.9553   -4.5386 C   0  0  0  0  0  0  0  0  0  0  0  0
    2.2911    2.2783    3.8411 C   0  0  0  0  0  0  0  0  0  0  0  0
    8.3878    4.0425   -5.8134 C   0  0  0  0  0  0  0  0  0  0  0  0
    6.4613    5.1871   -1.3295 C   0  0  0  0  0  0  0  0  0  0  0  0
    0.6113    0.7972    4.7918 C   0  0  0  0  0  0  0  0  0  0  0  0
    0.2266    3.2200    4.7674 C   0  0  0  0  0  0  0  0  0  0  0  0
    3.1711    1.2262    3.0834 C   0  0  0  0  0  0  0  0  0  0  0  0
    3.1525    4.7596   -2.6501 C   0  0  0  0  0  0  0  0  0  0  0  0
    5.9828    4.1997   -0.2516 C   0  0  0  0  0  0  0  0  0  0  0  0
    3.4601    4.6393   -5.3966 C   0  0  0  0  0  0  0  0  0  0  0  0
    8.8966    3.5941   -7.1735 C   0  0  0  0  0  0  0  0  0  0  0  0
   -0.8391    0.3385    4.9181 C   0  0  0  0  0  0  0  0  0  0  0  0
   -1.2603    3.2654    5.1910 C   0  0  0  0  0  0  0  0  0  0  0  0
    4.8643    2.5172    1.8626 C   0  0  0  0  0  0  0  0  0  0  0  0
    2.0954    4.3253   -3.4476 C   0  0  0  0  0  0  0  0  0  0  0  0
    2.2501    4.2687   -4.8148 C   0  0  0  0  0  0  0  0  0  0  0  0
    4.6813    3.7727   -0.1547 C   0  0  0  0  0  0  0  0  0  0  0  0
    6.7297    3.9261    0.8763 C   0  0  0  0  0  0  0  0  0  0  0  0
    4.1077    2.8785    0.7647 C   0  0  0  0  0  0  0  0  0  0  0  0
    6.1346    3.1743    1.9405 C   0  0  0  0  0  0  0  0  0  0  0  0
  1 30  1  0  0  0  0
  2 31  1  0  0  0  0
  3  8  1  0  0  0  0
  3 12  1  0  0  0  0
  4 18  1  0  0  0  0
  4 25  1  0  0  0  0
  5 15  2  0  0  0  0
  6 13  1  0  0  0  0
  6 16  1  0  0  0  0
  6 17  1  0  0  0  0
  7  8  1  0  0  0  0
  7 10  1  0  0  0  0
  8  9  2  0  0  0  0
  9 11  1  0  0  0  0
  9 15  1  0  0  0  0
 10 14  1  0  0  0  0
 11 12  1  0  0  0  0
 11 19  2  0  0  0  0
 12 21  2  0  0  0  0
 13 18  1  0  0  0  0
 14 22  1  0  0  0  0
 15 20  1  0  0  0  0
 16 23  1  0  0  0  0
 17 24  1  0  0  0  0
 19 26  1  0  0  0  0
 20 28  2  0  0  0  0
 20 29  1  0  0  0  0
 21 27  1  0  0  0  0
 25 30  2  0  0  0  0
 25 31  1  0  0  0  0
 26 27  2  0  0  0  0
 28 30  1  0  0  0  0
 29 31  2  0  0  0  0
M  END
