
 OpenBabel10141417523D

 25 26  0  0  1  0  0  0  0  0999 V2000
   -1.8479    1.7693   -3.9007 S   0  0  0  0  0  0  0  0  0  0  0  0
   -0.7353    5.3429   -0.2434 O   0  0  0  0  0  0  0  0  0  0  0  0
    1.7330    2.1441    0.8162 O   0  0  0  0  0  0  0  0  0  0  0  0
   -1.3427    0.8430   -4.9023 O   0  0  0  0  0  0  0  0  0  0  0  0
   -2.2842    3.0965   -4.2792 O   0  0  0  0  0  0  0  0  0  0  0  0
   -0.4797    6.6460    4.2820 N   0  0  0  0  0  0  0  0  0  0  0  0
    0.7429    4.5569    1.3093 N   0  0  0  0  0  0  0  0  0  0  0  0
    0.2682   -0.3450   -3.0287 N   0  0  0  0  0  0  0  0  0  0  0  0
   -0.4240    5.4868    3.3445 C   0  0  3  0  0  0  0  0  0  0  0  0
   -0.1234    4.2669    4.2245 C   0  0  0  0  0  0  0  0  0  0  0  0
    0.4283    4.8311    5.5154 C   0  0  0  0  0  0  0  0  0  0  0  0
   -0.3024    6.1443    5.6540 C   0  0  0  0  0  0  0  0  0  0  0  0
    0.6562    5.6827    2.2464 C   0  0  0  0  0  0  0  0  0  0  0  0
   -1.7541    7.3769    4.1526 C   0  0  0  0  0  0  0  0  0  0  0  0
   -1.8673    8.5804    5.0887 C   0  0  0  0  0  0  0  0  0  0  0  0
    0.0372    4.4601    0.1344 C   0  0  0  0  0  0  0  0  0  0  0  0
    0.2042    3.2095   -0.6978 C   0  0  0  0  0  0  0  0  0  0  0  0
   -0.5874    1.9472   -2.6472 C   0  0  0  0  0  0  0  0  0  0  0  0
   -0.5772    3.1203   -1.8709 C   0  0  0  0  0  0  0  0  0  0  0  0
    1.0303    2.1166   -0.3605 C   0  0  0  0  0  0  0  0  0  0  0  0
    0.2854    0.8956   -2.3706 C   0  0  0  0  0  0  0  0  0  0  0  0
    1.0324    0.9813   -1.1895 C   0  0  0  0  0  0  0  0  0  0  0  0
   -3.1598    0.9739   -2.9765 C   0  0  0  0  0  0  0  0  0  0  0  0
   -4.3243    0.5625   -3.8533 C   0  0  0  0  0  0  0  0  0  0  0  0
    2.9067    1.3379    0.9392 C   0  0  0  0  0  0  0  0  0  0  0  0
  1  4  2  0  0  0  0
  1  5  2  0  0  0  0
  1 18  1  0  0  0  0
  1 23  1  0  0  0  0
  2 16  2  0  0  0  0
  3 20  1  0  0  0  0
  3 25  1  0  0  0  0
  6  9  1  0  0  0  0
  6 12  1  0  0  0  0
  6 14  1  0  0  0  0
  7 13  1  0  0  0  0
  7 16  1  0  0  0  0
  8 21  1  0  0  0  0
  9 10  1  0  0  0  0
  9 13  1  0  0  0  0
 10 11  1  0  0  0  0
 11 12  1  0  0  0  0
 14 15  1  0  0  0  0
 16 17  1  0  0  0  0
 17 19  2  0  0  0  0
 17 20  1  0  0  0  0
 18 19  1  0  0  0  0
 18 21  2  0  0  0  0
 20 22  2  0  0  0  0
 21 22  1  0  0  0  0
 23 24  1  0  0  0  0
M  END
