321
 OpenBabel10141417533D

 21 23  0  0  0  0  0  0  0  0999 V2000
    3.0274    0.2498    1.4611 N   0  0  0  0  0  0  0  0  0  0  0  0
   -0.0992    1.4680    7.4245 C   0  0  0  0  0  0  0  0  0  0  0  0
   -0.6502    2.8581    7.7655 C   0  0  0  0  0  0  0  0  0  0  0  0
    1.0881    2.8108    5.2008 C   0  0  0  0  0  0  0  0  0  0  0  0
    1.3999    1.4693    7.2643 C   0  0  0  0  0  0  0  0  0  0  0  0
   -0.5347    3.9920    6.7600 C   0  0  0  0  0  0  0  0  0  0  0  0
    1.9779    2.1490    6.1768 C   0  0  0  0  0  0  0  0  0  0  0  0
    0.2503    3.9771    5.5870 C   0  0  0  0  0  0  0  0  0  0  0  0
    0.9165    2.2813    3.9636 C   0  0  0  0  0  0  0  0  0  0  0  0
    1.5769    1.0546    3.3815 C   0  0  0  0  0  0  0  0  0  0  0  0
    2.2310    0.8303    8.1911 C   0  0  0  0  0  0  0  0  0  0  0  0
   -1.2480    5.1691    7.0713 C   0  0  0  0  0  0  0  0  0  0  0  0
    3.3706    2.2123    6.0489 C   0  0  0  0  0  0  0  0  0  0  0  0
    0.3052    5.1306    4.7780 C   0  0  0  0  0  0  0  0  0  0  0  0
    2.3706    1.4040    2.1078 C   0  0  0  0  0  0  0  0  0  0  0  0
    3.6188    0.8816    8.0479 C   0  0  0  0  0  0  0  0  0  0  0  0
   -1.1916    6.2983    6.2554 C   0  0  0  0  0  0  0  0  0  0  0  0
    4.1873    1.5785    6.9816 C   0  0  0  0  0  0  0  0  0  0  0  0
   -0.4096    6.2792    5.1066 C   0  0  0  0  0  0  0  0  0  0  0  0
    3.6697    0.6807    0.2151 C   0  0  0  0  0  0  0  0  0  0  0  0
    4.0250   -0.3759    2.3324 C   0  0  0  0  0  0  0  0  0  0  0  0
  1 15  1  0  0  0  0
  1 20  1  0  0  0  0
  1 21  1  0  0  0  0
  2  3  1  0  0  0  0
  2  5  1  0  0  0  0
  3  6  1  0  0  0  0
  4  7  1  0  0  0  0
  4  8  1  0  0  0  0
  4  9  2  0  0  0  0
  5  7  1  0  0  0  0
  5 11  2  0  0  0  0
  6  8  1  0  0  0  0
  6 12  2  0  0  0  0
  7 13  2  0  0  0  0
  8 14  2  0  0  0  0
  9 10  1  0  0  0  0
 10 15  1  0  0  0  0
 11 16  1  0  0  0  0
 12 17  1  0  0  0  0
 13 18  1  0  0  0  0
 14 19  1  0  0  0  0
 16 18  2  0  0  0  0
 17 19  2  0  0  0  0
M  END
