381
 OpenBabel10141417493D

 28 29  0  0  1  0  0  0  0  0999 V2000
    2.7261    0.1753    1.5408 Cl  0  0  0  0  0  0  0  0  0  0  0  0
    3.3287    4.3897   -4.6114 O   0  0  0  0  0  0  0  0  0  0  0  0
    1.4997    1.8029   -3.5659 O   0  0  0  0  0  0  0  0  0  0  0  0
    2.7540    3.1537    2.4194 O   0  0  0  0  0  0  0  0  0  0  0  0
    2.5360    0.5354   -1.9926 O   0  0  0  0  0  0  0  0  0  0  0  0
    3.7157    5.2364    2.4828 O   0  0  0  0  0  0  0  0  0  0  0  0
    2.6240    5.2935   -1.6846 N   0  0  0  0  0  0  0  0  0  0  0  0
    5.2838    5.7687   -6.2675 N   0  0  0  0  0  0  0  0  0  0  0  0
    2.8590    2.8431   -0.2717 C   0  0  3  0  0  0  0  0  0  0  0  0
    2.4790    2.9279   -1.7783 C   0  0  0  0  0  0  0  0  0  0  0  0
    3.0024    4.2358    0.3954 C   0  0  0  0  0  0  0  0  0  0  0  0
    2.4055    4.1350   -2.4122 C   0  0  0  0  0  0  0  0  0  0  0  0
    2.8901    5.3737   -0.3348 C   0  0  0  0  0  0  0  0  0  0  0  0
    4.1218    1.9855   -0.0289 C   0  0  0  0  0  0  0  0  0  0  0  0
    2.0978    4.4011   -3.8852 C   0  0  0  0  0  0  0  0  0  0  0  0
    2.2050    1.6319   -2.4453 C   0  0  0  0  0  0  0  0  0  0  0  0
    3.0036    6.7874    0.1904 C   0  0  0  0  0  0  0  0  0  0  0  0
    3.2226    4.2927    1.8673 C   0  0  0  0  0  0  0  0  0  0  0  0
    4.1358    0.8145    0.7636 C   0  0  0  0  0  0  0  0  0  0  0  0
    5.3383    2.3858   -0.6172 C   0  0  0  0  0  0  0  0  0  0  0  0
    5.3233    0.0934    0.9626 C   0  0  0  0  0  0  0  0  0  0  0  0
    6.5178    1.6633   -0.4120 C   0  0  0  0  0  0  0  0  0  0  0  0
    6.5125    0.5182    0.3775 C   0  0  0  0  0  0  0  0  0  0  0  0
    3.1081    4.6131   -6.0095 C   0  0  0  0  0  0  0  0  0  0  0  0
    1.2320    0.7030   -4.4314 C   0  0  0  0  0  0  0  0  0  0  0  0
    4.4517    4.6617   -6.7472 C   0  0  0  0  0  0  0  0  0  0  0  0
    2.7453    3.0363    3.8433 C   0  0  0  0  0  0  0  0  0  0  0  0
   -0.2699    0.5393   -4.5144 C   0  0  0  0  0  0  0  0  0  0  0  0
  1 19  1  0  0  0  0
  2 15  1  0  0  0  0
  2 24  1  0  0  0  0
  3 16  1  0  0  0  0
  3 25  1  0  0  0  0
  4 18  1  0  0  0  0
  4 27  1  0  0  0  0
  5 16  2  0  0  0  0
  6 18  2  0  0  0  0
  7 12  1  0  0  0  0
  7 13  1  0  0  0  0
  8 26  1  0  0  0  0
  9 10  1  0  0  0  0
  9 11  1  0  0  0  0
  9 14  1  0  0  0  0
 10 12  2  0  0  0  0
 10 16  1  0  0  0  0
 11 13  2  0  0  0  0
 11 18  1  0  0  0  0
 12 15  1  0  0  0  0
 13 17  1  0  0  0  0
 14 19  1  0  0  0  0
 14 20  2  0  0  0  0
 19 21  2  0  0  0  0
 20 22  1  0  0  0  0
 21 23  1  0  0  0  0
 22 23  2  0  0  0  0
 24 26  1  0  0  0  0
 25 28  1  0  0  0  0
M  END
