[NO NAME]
 OpenBabel10141417503D
Created with ChemWriter - http://chemwriter.com
  7  5  0  0  0  0  0  0  0  0999 V2000
    0.5700   -0.7385   -0.3725 C   0  0  0  0  0  0  0  0  0  0  0  0
   -0.6882   -2.3837    1.0760 C   0  0  0  0  0  0  0  0  0  0  0  0
   -0.7009   -1.5767   -0.2050 C   0  0  3  0  0  0  0  0  0  0  0  0
    2.8745    0.8899   -0.6697 N   0  3  0  0  0  0  0  0  0  0  0  0
    0.4260    0.4592   -0.7945 O   0  0  0  0  0  0  0  0  0  0  0  0
    1.7121   -1.2196   -0.1086 O   0  5  0  0  0  0  0  0  0  0  0  0
   -1.8550   -0.7088   -0.1960 O   0  0  0  0  0  0  0  0  0  0  0  0
  3  1  1  0  0  0  0
  3  2  1  0  0  0  0
  5  1  2  0  0  0  0
  6  1  1  0  0  0  0
  7  3  1  0  0  0  0
M  CHG  2   4   1   6  -1
M  END
