613
 OpenBabel10141417533D

 25 27  0  0  0  0  0  0  0  0999 V2000
    9.1736   -4.1024    5.7864 Cl  0  0  0  0  0  0  0  0  0  0  0  0
   12.7454    2.6014    0.3233 O   0  0  0  0  0  0  0  0  0  0  0  0
   12.5055   -0.0829   -1.0447 N   0  0  0  0  0  0  0  0  0  0  0  0
    7.5568    1.4780    2.0565 N   0  0  0  0  0  0  0  0  0  0  0  0
    5.3502   -1.8913    3.3808 N   0  0  0  0  0  0  0  0  0  0  0  0
   11.8736   -0.2084    0.2844 C   0  0  0  0  0  0  0  0  0  0  0  0
   11.0253    0.9652    0.7215 C   0  0  0  0  0  0  0  0  0  0  0  0
   13.1885   -1.3546   -1.3732 C   0  0  0  0  0  0  0  0  0  0  0  0
   11.6148    0.3940   -2.1176 C   0  0  0  0  0  0  0  0  0  0  0  0
    9.6940    0.7301    1.1045 C   0  0  0  0  0  0  0  0  0  0  0  0
    8.8797    1.7345    1.6438 C   0  0  0  0  0  0  0  0  0  0  0  0
   11.5171    2.2667    0.8177 C   0  0  0  0  0  0  0  0  0  0  0  0
   13.9024   -1.3369   -2.7223 C   0  0  0  0  0  0  0  0  0  0  0  0
   10.3872   -0.4317   -2.4836 C   0  0  0  0  0  0  0  0  0  0  0  0
    9.4488    3.0034    1.8306 C   0  0  0  0  0  0  0  0  0  0  0  0
    6.8771    0.2987    2.4921 C   0  0  0  0  0  0  0  0  0  0  0  0
   10.7513    3.2768    1.3913 C   0  0  0  0  0  0  0  0  0  0  0  0
    7.4798   -0.7310    3.2786 C   0  0  0  0  0  0  0  0  0  0  0  0
    6.6482   -1.8004    3.7042 C   0  0  0  0  0  0  0  0  0  0  0  0
    5.5363    0.1513    2.1370 C   0  0  0  0  0  0  0  0  0  0  0  0
    8.8292   -0.7611    3.6878 C   0  0  0  0  0  0  0  0  0  0  0  0
    7.1903   -2.8012    4.4899 C   0  0  0  0  0  0  0  0  0  0  0  0
    4.8170   -0.9458    2.5942 C   0  0  0  0  0  0  0  0  0  0  0  0
    9.3781   -1.8090    4.4050 C   0  0  0  0  0  0  0  0  0  0  0  0
    8.5471   -2.8288    4.8316 C   0  0  0  0  0  0  0  0  0  0  0  0
  1 25  1  0  0  0  0
  2 12  1  0  0  0  0
  3  6  1  0  0  0  0
  3  8  1  0  0  0  0
  3  9  1  0  0  0  0
  4 11  1  0  0  0  0
  4 16  1  0  0  0  0
  5 19  2  0  0  0  0
  5 23  1  0  0  0  0
  6  7  1  0  0  0  0
  7 10  1  0  0  0  0
  7 12  2  0  0  0  0
  8 13  1  0  0  0  0
  9 14  1  0  0  0  0
 10 11  2  0  0  0  0
 11 15  1  0  0  0  0
 12 17  1  0  0  0  0
 15 17  2  0  0  0  0
 16 18  2  0  0  0  0
 16 20  1  0  0  0  0
 18 19  1  0  0  0  0
 18 21  1  0  0  0  0
 19 22  1  0  0  0  0
 20 23  2  0  0  0  0
 21 24  2  0  0  0  0
 22 25  2  0  0  0  0
 24 25  1  0  0  0  0
M  END
