
 OpenBabel10141417493D

 10 10  0  0  0  0  0  0  0  0999 V2000
   -1.2062    0.2977   -0.0137 C   0  0  0  0  0  0  0  0  0  0  0  0
   -0.3227   -0.2422   -0.9581 C   0  0  0  0  0  0  0  0  0  0  0  0
   -0.6806    0.9955    1.0835 C   0  0  0  0  0  0  0  0  0  0  0  0
   -2.6996    0.1226   -0.1766 C   0  0  0  0  0  0  0  0  0  0  0  0
    1.0560   -0.0762   -0.8167 C   0  0  0  0  0  0  0  0  0  0  0  0
    0.6981    1.1649    1.2206 C   0  0  0  0  0  0  0  0  0  0  0  0
   -3.4792    1.4473   -0.3243 C   0  0  3  0  0  0  0  0  0  0  0  0
    1.5658    0.6302    0.2714 C   0  0  0  0  0  0  0  0  0  0  0  0
   -3.0510    2.2401   -1.5606 C   0  0  0  0  0  0  0  0  0  0  0  0
   -4.9207    1.1678   -0.4041 N   0  0  0  0  0  0  0  0  0  0  0  0
  1  2  1  0  0  0  0
  1  3  2  0  0  0  0
  1  4  1  0  0  0  0
  2  5  2  0  0  0  0
  3  6  1  0  0  0  0
  4  7  1  0  0  0  0
  5  8  1  0  0  0  0
  6  8  2  0  0  0  0
  7  9  1  0  0  0  0
  7 10  1  0  0  0  0
M  END
