701
 OpenBabel10141417493D

 35 37  0  0  1  0  0  0  0  0999 V2000
    2.6362    3.9651   -0.0771 S   0  0  0  0  0  0  0  0  0  0  0  0
    3.2315    1.2341   -1.3452 O   0  0  0  0  0  0  0  0  0  0  0  0
   -2.1190   -0.5795   -0.4349 O   0  0  0  0  0  0  0  0  0  0  0  0
   -5.5985   -0.5961   -1.4196 O   0  0  0  0  0  0  0  0  0  0  0  0
    2.4452    5.1449    0.7207 O   0  0  0  0  0  0  0  0  0  0  0  0
    3.2541    4.0218   -1.3649 O   0  0  0  0  0  0  0  0  0  0  0  0
   -0.7515   -0.1977   -2.2090 O   0  0  0  0  0  0  0  0  0  0  0  0
    0.9975    3.2456   -0.3074 N   0  0  0  0  0  0  0  0  0  0  0  0
    0.0800   -0.3790   -0.0699 N   0  0  0  0  0  0  0  0  0  0  0  0
    5.9537    0.4272    3.4708 N   0  0  0  0  0  0  0  0  0  0  0  0
    1.8276    0.9709   -1.4079 C   0  0  1  0  0  0  0  0  0  0  0  0
    1.4993   -0.0754   -0.3001 C   0  0  2  0  0  0  0  0  0  0  0  0
    0.9849    2.2653   -1.4648 C   0  0  0  0  0  0  0  0  0  0  0  0
    0.0114    4.4481   -0.5642 C   0  0  0  0  0  0  0  0  0  0  0  0
    2.3429   -1.3361   -0.6153 C   0  0  0  0  0  0  0  0  0  0  0  0
   -1.5122    4.1874   -0.7819 C   0  0  0  0  0  0  0  0  0  0  0  0
   -3.2670   -0.3831   -1.2818 C   0  0  1  0  0  0  0  0  0  0  0  0
    2.4907   -2.4137    0.4325 C   0  0  0  0  0  0  0  0  0  0  0  0
   -2.3319    5.5042   -0.7167 C   0  0  0  0  0  0  0  0  0  0  0  0
   -1.9160    3.5974   -2.1386 C   0  0  0  0  0  0  0  0  0  0  0  0
   -3.5606   -1.5689   -2.1809 C   0  0  0  0  0  0  0  0  0  0  0  0
    3.5710    2.8657    0.9967 C   0  0  0  0  0  0  0  0  0  0  0  0
   -4.5548   -0.3293   -0.4740 C   0  0  0  0  0  0  0  0  0  0  0  0
   -0.9182   -0.4047   -1.0007 C   0  0  0  0  0  0  0  0  0  0  0  0
   -5.0739   -1.5580   -2.3459 C   0  0  0  0  0  0  0  0  0  0  0  0
    3.4322   -2.2737    1.4624 C   0  0  0  0  0  0  0  0  0  0  0  0
    1.8708   -3.6531    0.2434 C   0  0  0  0  0  0  0  0  0  0  0  0
    3.1373    2.5597    2.2883 C   0  0  0  0  0  0  0  0  0  0  0  0
    4.8551    2.4785    0.5962 C   0  0  0  0  0  0  0  0  0  0  0  0
    3.9013   -3.4020    2.1376 C   0  0  0  0  0  0  0  0  0  0  0  0
    2.2845   -4.7643    0.9782 C   0  0  0  0  0  0  0  0  0  0  0  0
    3.9450    1.7579    3.1142 C   0  0  0  0  0  0  0  0  0  0  0  0
    5.6383    1.6646    1.4162 C   0  0  0  0  0  0  0  0  0  0  0  0
    5.1488    1.2205    2.6437 C   0  0  0  0  0  0  0  0  0  0  0  0
    3.3460   -4.6524    1.8743 C   0  0  0  0  0  0  0  0  0  0  0  0
  1  5  2  0  0  0  0
  1  6  2  0  0  0  0
  1  8  1  0  0  0  0
  1 22  1  0  0  0  0
  3 24  1  0  0  0  0
  4 23  1  0  0  0  0
  4 25  1  0  0  0  0
  7 24  2  0  0  0  0
  8 13  1  0  0  0  0
  8 14  1  0  0  0  0
  9 24  1  0  0  0  0
 10 34  1  0  0  0  0
 11  2  1  1  0  0  0
 11 12  1  0  0  0  0
 11 13  1  0  0  0  0
 12  9  1  6  0  0  0
 12 15  1  0  0  0  0
 14 16  1  0  0  0  0
 15 18  1  0  0  0  0
 16 19  1  0  0  0  0
 16 20  1  0  0  0  0
 17  3  1  1  0  0  0
 17 21  1  0  0  0  0
 17 23  1  0  0  0  0
 18 26  2  0  0  0  0
 18 27  1  0  0  0  0
 21 25  1  0  0  0  0
 22 28  2  0  0  0  0
 22 29  1  0  0  0  0
 26 30  1  0  0  0  0
 27 31  2  0  0  0  0
 28 32  1  0  0  0  0
 29 33  2  0  0  0  0
 30 35  2  0  0  0  0
 31 35  1  0  0  0  0
 32 34  2  0  0  0  0
 33 34  1  0  0  0  0
M  END
