1427
 OpenBabel10141417493D

 14 15  0  0  0  0  0  0  0  0999 V2000
    0.9316    0.0295    0.4018 O   0  0  0  0  0  0  0  0  0  0  0  0
    2.9409   -1.0481    0.3359 N   0  0  0  0  0  0  0  0  0  0  0  0
    2.0713    2.4974   -0.2801 N   0  0  0  0  0  0  0  0  0  0  0  0
    9.1440   -0.1009   -0.9852 N   0  0  0  0  0  0  0  0  0  0  0  0
    4.9318    0.0618   -0.2866 C   0  0  0  0  0  0  0  0  0  0  0  0
    6.3835   -0.0029   -0.5287 C   0  0  0  0  0  0  0  0  0  0  0  0
    4.1657    1.2924   -0.4206 C   0  0  0  0  0  0  0  0  0  0  0  0
    4.2905   -1.0576    0.0933 C   0  0  0  0  0  0  0  0  0  0  0  0
    2.8462    1.3544   -0.1762 C   0  0  0  0  0  0  0  0  0  0  0  0
    2.1464    0.0660    0.2211 C   0  0  0  0  0  0  0  0  0  0  0  0
    7.2673    0.6565    0.3272 C   0  0  0  0  0  0  0  0  0  0  0  0
    6.8971   -0.7062   -1.6201 C   0  0  0  0  0  0  0  0  0  0  0  0
    8.6236    0.5767    0.0601 C   0  0  0  0  0  0  0  0  0  0  0  0
    8.2697   -0.7253   -1.8024 C   0  0  0  0  0  0  0  0  0  0  0  0
  1 10  2  0  0  0  0
  2  8  1  0  0  0  0
  2 10  1  0  0  0  0
  3  9  1  0  0  0  0
  4 13  2  0  0  0  0
  4 14  1  0  0  0  0
  5  6  1  0  0  0  0
  5  7  1  0  0  0  0
  5  8  2  0  0  0  0
  6 11  2  0  0  0  0
  6 12  1  0  0  0  0
  7  9  2  0  0  0  0
  9 10  1  0  0  0  0
 11 13  1  0  0  0  0
 12 14  2  0  0  0  0
M  END
