
 OpenBabel10141417473D

 16 18  0  0  0  0  0  0  0  0999 V2000
    1.4050   -0.6100    0.0277 C   0  0  0  0  0  0  0  0  0  0  0  0
    1.4406    0.7342    0.2316 N   0  0  0  0  0  0  0  0  0  0  0  0
   -0.9403    0.7734   -0.1000 C   0  0  0  0  0  0  0  0  0  0  0  0
    0.3597   -1.3325   -0.1562 N   0  0  0  0  0  0  0  0  0  0  0  0
   -0.8652   -0.6396   -0.0897 C   0  0  0  0  0  0  0  0  0  0  0  0
    0.3500    1.5533   -0.2277 C   0  0  0  0  0  0  0  0  0  0  0  0
   -2.1969    1.3996   -0.0167 C   0  0  0  0  0  0  0  0  0  0  0  0
   -3.3573    0.6222    0.1312 C   0  0  0  0  0  0  0  0  0  0  0  0
   -2.0324   -1.3959    0.0306 C   0  0  0  0  0  0  0  0  0  0  0  0
   -3.2728   -0.7710    0.1558 C   0  0  0  0  0  0  0  0  0  0  0  0
   -2.3038    3.1312   -0.0961 Cl  0  0  0  0  0  0  0  0  0  0  0  0
   -4.9310    1.3214    0.3011 Cl  0  0  0  0  0  0  0  0  0  0  0  0
    2.8150    1.2038    0.2751 C   0  0  0  0  0  0  0  0  0  0  0  0
    2.6457   -1.1207    0.0467 N   0  0  0  0  0  0  0  0  0  0  0  0
    3.5746   -0.1299    0.2263 C   0  0  0  0  0  0  0  0  0  0  0  0
    4.7835   -0.2828    0.3111 O   0  0  0  0  0  0  0  0  0  0  0  0
  1 14  1  0  0  0  0
  2  1  1  0  0  0  0
  3  5  1  0  0  0  0
  4  1  2  0  0  0  0
  5  4  1  0  0  0  0
  6  2  1  0  0  0  0
  6  3  1  0  0  0  0
  7  3  2  0  0  0  0
  8 10  2  0  0  0  0
  8  7  1  0  0  0  0
  9  5  2  0  0  0  0
 10  9  1  0  0  0  0
 11  7  1  0  0  0  0
 12  8  1  0  0  0  0
 13  2  1  0  0  0  0
 13 15  1  0  0  0  0
 14 15  1  0  0  0  0
 15 16  2  0  0  0  0
M  END
