166548
 OpenBabel10141417503D

 82 88  0  0  1  0  0  0  0  0999 V2000
    6.7335   -1.9229   -3.1595 O   0  0  0  0  0  0  0  0  0  0  0  0
    9.7876    1.0371   -0.1580 O   0  0  0  0  0  0  0  0  0  0  0  0
    5.4901    0.3979   -0.7581 O   0  0  0  0  0  0  0  0  0  0  0  0
   15.6053    5.9662   -0.8821 O   0  0  0  0  0  0  0  0  0  0  0  0
    8.5548   -1.2023    3.7532 O   0  0  0  0  0  0  0  0  0  0  0  0
    7.0471    4.0110   -1.1773 O   0  0  0  0  0  0  0  0  0  0  0  0
    4.9087    4.1131    1.0991 O   0  0  0  0  0  0  0  0  0  0  0  0
   15.1334    1.5159    1.4179 O   0  0  0  0  0  0  0  0  0  0  0  0
   11.6089    6.1502    0.6413 O   0  0  0  0  0  0  0  0  0  0  0  0
   12.3797   -0.1877    5.1758 O   0  0  0  0  0  0  0  0  0  0  0  0
   12.5484   -0.8794    1.5917 O   0  0  0  0  0  0  0  0  0  0  0  0
   12.6662    3.8384   -2.1771 O   0  0  0  0  0  0  0  0  0  0  0  0
   14.9426    1.1802    5.4844 O   0  0  0  0  0  0  0  0  0  0  0  0
   10.4663    2.9387    2.2912 O   0  0  0  0  0  0  0  0  0  0  0  0
    9.5032    3.9528    5.0433 O   0  0  0  0  0  0  0  0  0  0  0  0
   11.7407    2.9510   10.6831 O   0  0  0  0  0  0  0  0  0  0  0  0
   13.7875   16.6405   11.6918 O   0  0  0  0  0  0  0  0  0  0  0  0
    8.6685   -0.9361   -0.4132 N   0  0  0  0  0  0  0  0  0  0  0  0
   13.4378    4.7987    0.9053 N   0  0  0  0  0  0  0  0  0  0  0  0
    7.2538    1.8303   -0.5525 N   0  0  0  0  0  0  0  0  0  0  0  0
   10.7846    0.2968    2.4055 N   0  0  0  0  0  0  0  0  0  0  0  0
   13.2134    2.2139    2.4254 N   0  0  0  0  0  0  0  0  0  0  0  0
    9.9308    4.1077    0.4258 N   0  0  0  0  0  0  0  0  0  0  0  0
    8.8151    5.2528    3.2950 N   0  0  0  0  0  0  0  0  0  0  0  0
    7.7866   -2.9521   -1.1821 C   0  0  2  0  0  0  0  0  0  0  0  0
    6.9309   -1.7926   -1.7567 C   0  0  1  0  0  0  0  0  0  0  0  0
    7.6901   -0.4770   -1.3968 C   0  0  1  0  0  0  0  0  0  0  0  0
    9.0826   -2.2851   -0.7538 C   0  0  0  0  0  0  0  0  0  0  0  0
    7.9987   -4.1561   -2.0877 C   0  0  0  0  0  0  0  0  0  0  0  0
    9.5239   -0.0864    0.2658 C   0  0  0  0  0  0  0  0  0  0  0  0
    6.7028    0.5978   -0.8551 C   0  0  0  0  0  0  0  0  0  0  0  0
    9.7976   -0.5396    1.7277 C   0  0  2  0  0  0  0  0  0  0  0  0
   14.2793    3.6183    0.6323 C   0  0  1  0  0  0  0  0  0  0  0  0
   15.7355    4.1399    0.6823 C   0  0  0  0  0  0  0  0  0  0  0  0
   15.6223    5.6389    0.5039 C   0  0  2  0  0  0  0  0  0  0  0  0
   14.2817    5.9658    1.1558 C   0  0  0  0  0  0  0  0  0  0  0  0
    8.4321   -0.5686    2.4789 C   0  0  1  0  0  0  0  0  0  0  0  0
    6.4444    3.0043   -0.3822 C   0  0  1  0  0  0  0  0  0  0  0  0
   13.0716    0.9384    3.1525 C   0  0  2  0  0  0  0  0  0  0  0  0
   14.2508    2.3687    1.5408 C   0  0  0  0  0  0  0  0  0  0  0  0
   12.1341    5.0333    0.4957 C   0  0  0  0  0  0  0  0  0  0  0  0
    6.2285    3.5099    1.0769 C   0  0  1  0  0  0  0  0  0  0  0  0
   12.1294    0.0103    2.3361 C   0  0  0  0  0  0  0  0  0  0  0  0
   11.2913    3.8990   -0.1358 C   0  0  2  0  0  0  0  0  0  0  0  0
   12.6214    1.1211    4.6230 C   0  0  1  0  0  0  0  0  0  0  0  0
    7.1750    4.6192    1.5914 C   0  0  0  0  0  0  0  0  0  0  0  0
    7.8186    0.8012    2.6960 C   0  0  0  0  0  0  0  0  0  0  0  0
    8.3813    4.1653    2.4234 C   0  0  1  0  0  0  0  0  0  0  0  0
   11.3415    4.0538   -1.6767 C   0  0  1  0  0  0  0  0  0  0  0  0
   13.7009    1.8883    5.4625 C   0  0  2  0  0  0  0  0  0  0  0  0
    9.6496    3.6440    1.6924 C   0  0  0  0  0  0  0  0  0  0  0  0
   10.4372    3.0887   -2.4336 C   0  0  0  0  0  0  0  0  0  0  0  0
   13.2870    2.1733    6.9015 C   0  0  0  0  0  0  0  0  0  0  0  0
    9.3667    5.0304    4.5459 C   0  0  0  0  0  0  0  0  0  0  0  0
   13.0822    3.4904    7.3434 C   0  0  0  0  0  0  0  0  0  0  0  0
   13.1000    1.1264    7.8225 C   0  0  0  0  0  0  0  0  0  0  0  0
    9.7667    6.2829    5.2713 C   0  0  0  0  0  0  0  0  0  0  0  0
   12.6098    3.7394    8.6355 C   0  0  0  0  0  0  0  0  0  0  0  0
   12.5823    1.3692    9.0949 C   0  0  0  0  0  0  0  0  0  0  0  0
   12.3159    2.6760    9.4787 C   0  0  0  0  0  0  0  0  0  0  0  0
    9.7441    6.2968    6.6684 C   0  0  0  0  0  0  0  0  0  0  0  0
   10.1919    7.4044    4.5776 C   0  0  0  0  0  0  0  0  0  0  0  0
   10.1411    7.4582    7.3559 C   0  0  0  0  0  0  0  0  0  0  0  0
   10.6024    8.5456    5.2601 C   0  0  0  0  0  0  0  0  0  0  0  0
   10.5871    8.5995    6.6632 C   0  0  0  0  0  0  0  0  0  0  0  0
   11.0585    9.8061    7.3737 C   0  0  0  0  0  0  0  0  0  0  0  0
   10.9217   11.0915    6.8215 C   0  0  0  0  0  0  0  0  0  0  0  0
   11.6803    9.7111    8.6229 C   0  0  0  0  0  0  0  0  0  0  0  0
   11.3750   12.2329    7.4919 C   0  0  0  0  0  0  0  0  0  0  0  0
   12.1276   10.8492    9.2932 C   0  0  0  0  0  0  0  0  0  0  0  0
   11.9803   12.1367    8.7480 C   0  0  0  0  0  0  0  0  0  0  0  0
   12.4248   13.3273    9.4951 C   0  0  0  0  0  0  0  0  0  0  0  0
   12.4004   13.3117   10.8944 C   0  0  0  0  0  0  0  0  0  0  0  0
   12.8854   14.5009    8.8731 C   0  0  0  0  0  0  0  0  0  0  0  0
   12.8440   14.3914   11.6450 C   0  0  0  0  0  0  0  0  0  0  0  0
   13.3244   15.5985    9.6306 C   0  0  0  0  0  0  0  0  0  0  0  0
   13.3151   15.5423   11.0257 C   0  0  0  0  0  0  0  0  0  0  0  0
   15.0912   15.9531   13.6423 C   0  0  0  0  0  0  0  0  0  0  0  0
   13.7917   16.5767   13.1246 C   0  0  0  0  0  0  0  0  0  0  0  0
   15.0635   15.8049   15.1634 C   0  0  0  0  0  0  0  0  0  0  0  0
   16.3581   15.1894   15.6933 C   0  0  0  0  0  0  0  0  0  0  0  0
   16.3350   15.0595   17.2084 C   0  0  0  0  0  0  0  0  0  0  0  0
  2 30  2  0  0  0  0
  3 31  2  0  0  0  0
  8 40  2  0  0  0  0
  9 41  2  0  0  0  0
 11 43  2  0  0  0  0
 14 51  2  0  0  0  0
 15 54  2  0  0  0  0
 16 60  1  0  0  0  0
 17 77  1  0  0  0  0
 17 79  1  0  0  0  0
 18 28  1  0  0  0  0
 18 30  1  0  0  0  0
 19 36  1  0  0  0  0
 19 41  1  0  0  0  0
 20 31  1  0  0  0  0
 20 38  1  0  0  0  0
 21 43  1  0  0  0  0
 22 40  1  0  0  0  0
 23 51  1  0  0  0  0
 24 54  1  0  0  0  0
 25 26  1  0  0  0  0
 25 28  1  0  0  0  0
 25 29  1  6  0  0  0
 26  1  1  6  0  0  0
 26 27  1  0  0  0  0
 27 18  1  1  0  0  0
 27 31  1  0  0  0  0
 30 32  1  0  0  0  0
 32 21  1  1  0  0  0
 32 37  1  0  0  0  0
 33 19  1  1  0  0  0
 33 34  1  0  0  0  0
 33 40  1  0  0  0  0
 34 35  1  0  0  0  0
 35  4  1  6  0  0  0
 35 36  1  0  0  0  0
 37 47  1  6  0  0  0
 37  5  1  0  0  0  0
 38 42  1  0  0  0  0
 38  6  1  6  0  0  0
 39 22  1  6  0  0  0
 39 43  1  0  0  0  0
 39 45  1  0  0  0  0
 41 44  1  0  0  0  0
 42 46  1  0  0  0  0
 42  7  1  6  0  0  0
 44 23  1  1  0  0  0
 44 49  1  0  0  0  0
 45 50  1  0  0  0  0
 45 10  1  6  0  0  0
 46 48  1  0  0  0  0
 48 51  1  0  0  0  0
 48 24  1  6  0  0  0
 49 52  1  1  0  0  0
 49 12  1  0  0  0  0
 50 13  1  6  0  0  0
 50 53  1  0  0  0  0
 53 55  2  0  0  0  0
 53 56  1  0  0  0  0
 54 57  1  0  0  0  0
 55 58  1  0  0  0  0
 56 59  2  0  0  0  0
 57 61  2  0  0  0  0
 57 62  1  0  0  0  0
 58 60  2  0  0  0  0
 59 60  1  0  0  0  0
 61 63  1  0  0  0  0
 62 64  2  0  0  0  0
 63 65  2  0  0  0  0
 64 65  1  0  0  0  0
 65 66  1  0  0  0  0
 66 67  2  0  0  0  0
 66 68  1  0  0  0  0
 67 69  1  0  0  0  0
 68 70  2  0  0  0  0
 69 71  2  0  0  0  0
 70 71  1  0  0  0  0
 71 72  1  0  0  0  0
 72 73  2  0  0  0  0
 72 74  1  0  0  0  0
 73 75  1  0  0  0  0
 74 76  2  0  0  0  0
 75 77  2  0  0  0  0
 76 77  1  0  0  0  0
 78 79  1  0  0  0  0
 78 80  1  0  0  0  0
 80 81  1  0  0  0  0
 81 82  1  0  0  0  0
M  END
