1125
 OpenBabel10141417543D

 19 21  0  0  0  0  0  0  0  0999 V2000
    1.4826    0.3377   -0.4175 O   0  0  0  0  0  0  0  0  0  0  0  0
    5.9974   -1.1211   -0.3984 O   0  0  0  0  0  0  0  0  0  0  0  0
    2.7923   -3.5495    4.8913 O   0  0  0  0  0  0  0  0  0  0  0  0
    3.5376   -1.0105   -0.1660 C   0  0  0  0  0  0  0  0  0  0  0  0
    2.7003    0.2467   -0.3592 C   0  0  0  0  0  0  0  0  0  0  0  0
    4.9620   -0.4820   -0.3377 C   0  0  0  0  0  0  0  0  0  0  0  0
    3.5884    1.3992   -0.4339 C   0  0  0  0  0  0  0  0  0  0  0  0
    4.9089    0.9761   -0.4332 C   0  0  0  0  0  0  0  0  0  0  0  0
    3.3387   -1.6958    1.1742 C   0  0  0  0  0  0  0  0  0  0  0  0
    3.2504    2.7395   -0.4684 C   0  0  0  0  0  0  0  0  0  0  0  0
    5.9573    1.8763   -0.4859 C   0  0  0  0  0  0  0  0  0  0  0  0
    4.0557   -2.8657    1.4663 C   0  0  0  0  0  0  0  0  0  0  0  0
    2.4614   -1.2019    2.1520 C   0  0  0  0  0  0  0  0  0  0  0  0
    4.2952    3.6649   -0.5088 C   0  0  0  0  0  0  0  0  0  0  0  0
    5.6377    3.2367   -0.5218 C   0  0  0  0  0  0  0  0  0  0  0  0
    3.9054   -3.5147    2.6969 C   0  0  0  0  0  0  0  0  0  0  0  0
    2.3090   -1.8540    3.3766 C   0  0  0  0  0  0  0  0  0  0  0  0
    3.0296   -3.0113    3.6573 C   0  0  0  0  0  0  0  0  0  0  0  0
    3.5340   -4.7165    5.2192 C   0  0  0  0  0  0  0  0  0  0  0  0
  1  5  2  0  0  0  0
  2  6  2  0  0  0  0
  3 18  1  0  0  0  0
  3 19  1  0  0  0  0
  4  5  1  0  0  0  0
  4  6  1  0  0  0  0
  4  9  1  0  0  0  0
  5  7  1  0  0  0  0
  6  8  1  0  0  0  0
  7  8  1  0  0  0  0
  7 10  2  0  0  0  0
  8 11  2  0  0  0  0
  9 12  2  0  0  0  0
  9 13  1  0  0  0  0
 10 14  1  0  0  0  0
 11 15  1  0  0  0  0
 12 16  1  0  0  0  0
 13 17  2  0  0  0  0
 14 15  2  0  0  0  0
 16 18  2  0  0  0  0
 17 18  1  0  0  0  0
M  END
