
 OpenBabel10141417503D

 34 38  0  0  0  0  0  0  0  0999 V2000
    1.7999   -0.0139    1.3385 O   0  0  0  0  0  0  0  0  0  0  0  0
    1.7546   -5.5607    4.7711 O   0  0  0  0  0  0  0  0  0  0  0  0
    7.2540    2.2363   -1.4727 O   0  0  0  0  0  0  0  0  0  0  0  0
   -2.0578    4.7004    0.9073 O   0  0  0  0  0  0  0  0  0  0  0  0
    3.3904   -1.3627    0.2457 N   0  0  0  0  0  0  0  0  0  0  0  0
    1.9232   -6.4146    2.5862 N   0  0  0  0  0  0  0  0  0  0  0  0
    2.9449    2.3463   -0.0382 N   0  0  0  0  0  0  0  0  0  0  0  0
    3.9792    3.1871   -0.3609 N   0  0  0  0  0  0  0  0  0  0  0  0
    6.3667    4.2908   -1.1330 N   0  0  0  0  0  0  0  0  0  0  0  0
    5.4152   -0.2068   -0.7365 C   0  0  0  0  0  0  0  0  0  0  0  0
    4.4317   -1.3824   -0.8134 C   0  0  0  0  0  0  0  0  0  0  0  0
    4.6454    1.0411   -0.5561 C   0  0  0  0  0  0  0  0  0  0  0  0
    3.3730    1.0346   -0.0152 C   0  0  0  0  0  0  0  0  0  0  0  0
    2.2306   -7.6296    1.8203 C   0  0  0  0  0  0  0  0  0  0  0  0
    1.5698   -8.8968    2.3311 C   0  0  0  0  0  0  0  0  0  0  0  0
    1.8229   -9.0238    3.8151 C   0  0  0  0  0  0  0  0  0  0  0  0
    1.2082   -7.8304    4.5078 C   0  0  0  0  0  0  0  0  0  0  0  0
    2.7568   -0.1275    0.5812 C   0  0  0  0  0  0  0  0  0  0  0  0
    2.9552   -2.6217    0.7941 C   0  0  0  0  0  0  0  0  0  0  0  0
    2.2286   -5.1471    1.9620 C   0  0  0  0  0  0  0  0  0  0  0  0
    1.6809   -6.4948    3.9704 C   0  0  0  0  0  0  0  0  0  0  0  0
    4.9980    2.3869   -0.7197 C   0  0  0  0  0  0  0  0  0  0  0  0
    2.2274   -2.7012    1.9810 C   0  0  0  0  0  0  0  0  0  0  0  0
    3.2696   -3.8372    0.1753 C   0  0  0  0  0  0  0  0  0  0  0  0
    1.8490   -3.9324    2.5344 C   0  0  0  0  0  0  0  0  0  0  0  0
    2.9204   -5.0711    0.7470 C   0  0  0  0  0  0  0  0  0  0  0  0
    1.6620    2.9159    0.1976 C   0  0  0  0  0  0  0  0  0  0  0  0
    6.2953    2.9314   -1.1458 C   0  0  0  0  0  0  0  0  0  0  0  0
    1.6034    4.2502    0.6300 C   0  0  0  0  0  0  0  0  0  0  0  0
    0.4645    2.2294   -0.0344 C   0  0  0  0  0  0  0  0  0  0  0  0
    0.3765    4.8693    0.8905 C   0  0  0  0  0  0  0  0  0  0  0  0
   -0.7629    2.8654    0.2141 C   0  0  0  0  0  0  0  0  0  0  0  0
   -0.8119    4.1747    0.7006 C   0  0  0  0  0  0  0  0  0  0  0  0
   -2.1422    5.6957    1.9257 C   0  0  0  0  0  0  0  0  0  0  0  0
  1 18  2  0  0  0  0
  2 21  2  0  0  0  0
  3 28  2  0  0  0  0
  4 33  1  0  0  0  0
  4 34  1  0  0  0  0
  5 11  1  0  0  0  0
  5 18  1  0  0  0  0
  5 19  1  0  0  0  0
  6 14  1  0  0  0  0
  6 20  1  0  0  0  0
  6 21  1  0  0  0  0
  7  8  1  0  0  0  0
  7 13  1  0  0  0  0
  7 27  1  0  0  0  0
  8 22  2  0  0  0  0
  9 28  1  0  0  0  0
 10 11  1  0  0  0  0
 10 12  1  0  0  0  0
 12 13  2  0  0  0  0
 12 22  1  0  0  0  0
 13 18  1  0  0  0  0
 14 15  1  0  0  0  0
 15 16  1  0  0  0  0
 16 17  1  0  0  0  0
 17 21  1  0  0  0  0
 19 23  2  0  0  0  0
 19 24  1  0  0  0  0
 20 25  2  0  0  0  0
 20 26  1  0  0  0  0
 22 28  1  0  0  0  0
 23 25  1  0  0  0  0
 24 26  2  0  0  0  0
 27 29  2  0  0  0  0
 27 30  1  0  0  0  0
 29 31  1  0  0  0  0
 30 32  2  0  0  0  0
 31 33  2  0  0  0  0
 32 33  1  0  0  0  0
M  END
