714
 OpenBabel10141417483D

 20 23  0  0  1  0  0  0  0  0999 V2000
   -1.0950    4.7278    0.0512 O   0  0  0  0  0  0  0  0  0  0  0  0
   -2.3408    2.3814    0.0014 O   0  0  0  0  0  0  0  0  0  0  0  0
    5.4240    3.6377    0.3683 N   0  0  0  0  0  0  0  0  0  0  0  0
    3.9382    3.6368    0.4666 C   0  0  1  0  0  0  0  0  0  0  0  0
    3.2787    4.9371    0.0080 C   0  0  0  0  0  0  0  0  0  0  0  0
    3.3010    2.4173   -0.2374 C   0  0  0  0  0  0  0  0  0  0  0  0
    4.0238    6.1375   -0.0198 C   0  0  0  0  0  0  0  0  0  0  0  0
    5.9477    4.8470    1.0226 C   0  0  0  0  0  0  0  0  0  0  0  0
    5.4797    6.1572    0.3777 C   0  0  0  0  0  0  0  0  0  0  0  0
    1.9075    4.9259   -0.3524 C   0  0  0  0  0  0  0  0  0  0  0  0
    1.7921    2.4362   -0.1505 C   0  0  0  0  0  0  0  0  0  0  0  0
    1.1085    3.6773   -0.2011 C   0  0  0  0  0  0  0  0  0  0  0  0
    5.9338    3.5041   -0.9983 C   0  0  0  0  0  0  0  0  0  0  0  0
    3.4305    7.3120   -0.4910 C   0  0  0  0  0  0  0  0  0  0  0  0
    1.3738    6.1128   -0.8881 C   0  0  0  0  0  0  0  0  0  0  0  0
    1.0953    1.2139   -0.0890 C   0  0  0  0  0  0  0  0  0  0  0  0
   -0.2932    3.6186   -0.0917 C   0  0  0  0  0  0  0  0  0  0  0  0
    2.1181    7.2933   -0.9436 C   0  0  0  0  0  0  0  0  0  0  0  0
   -0.9749    2.3974   -0.0556 C   0  0  0  0  0  0  0  0  0  0  0  0
   -0.2936    1.1935   -0.0557 C   0  0  0  0  0  0  0  0  0  0  0  0
  1 17  1  0  0  0  0
  2 19  1  0  0  0  0
  3  8  1  0  0  0  0
  3 13  1  0  0  0  0
  4  3  1  6  0  0  0
  4  5  1  0  0  0  0
  4  6  1  0  0  0  0
  5  7  2  0  0  0  0
  5 10  1  0  0  0  0
  6 11  1  0  0  0  0
  7  9  1  0  0  0  0
  7 14  1  0  0  0  0
  8  9  1  0  0  0  0
 10 12  1  0  0  0  0
 10 15  2  0  0  0  0
 11 12  2  0  0  0  0
 11 16  1  0  0  0  0
 12 17  1  0  0  0  0
 14 18  2  0  0  0  0
 15 18  1  0  0  0  0
 16 20  2  0  0  0  0
 17 19  2  0  0  0  0
 19 20  1  0  0  0  0
M  END
