964
 OpenBabel10141417483D

 15 16  0  0  0  0  0  0  0  0999 V2000
    1.6087   -1.1620    1.5723 Cl  0  0  0  0  0  0  0  0  0  0  0  0
    5.6190    2.2757    0.0480 Cl  0  0  0  0  0  0  0  0  0  0  0  0
    1.0166    2.8993    1.5804 N   0  0  0  0  0  0  0  0  0  0  0  0
    2.8484    1.6991    1.0100 N   0  0  0  0  0  0  0  0  0  0  0  0
    0.7215    1.3489   -0.0643 N   0  0  0  0  0  0  0  0  0  0  0  0
    6.1162   -2.7985   -0.0479 N   0  0  0  0  0  0  0  0  0  0  0  0
   -0.4240    2.8508    1.4506 C   0  0  0  0  0  0  0  0  0  0  0  0
   -0.5963    1.9876    0.1986 C   0  0  0  0  0  0  0  0  0  0  0  0
    1.5322    1.9210    0.7807 C   0  0  0  0  0  0  0  0  0  0  0  0
    3.5912    0.5433    0.6625 C   0  0  0  0  0  0  0  0  0  0  0  0
    3.1294   -0.7757    0.8328 C   0  0  0  0  0  0  0  0  0  0  0  0
    4.9243    0.6943    0.2229 C   0  0  0  0  0  0  0  0  0  0  0  0
    5.2545   -1.7018    0.0618 C   0  0  0  0  0  0  0  0  0  0  0  0
    3.9579   -1.8744    0.5445 C   0  0  0  0  0  0  0  0  0  0  0  0
    5.7475   -0.4054   -0.0510 C   0  0  0  0  0  0  0  0  0  0  0  0
  1 11  1  0  0  0  0
  2 12  1  0  0  0  0
  3  7  1  0  0  0  0
  3  9  1  0  0  0  0
  4  9  1  0  0  0  0
  4 10  1  0  0  0  0
  5  8  1  0  0  0  0
  5  9  2  0  0  0  0
  6 13  1  0  0  0  0
  7  8  1  0  0  0  0
 10 11  2  0  0  0  0
 10 12  1  0  0  0  0
 11 14  1  0  0  0  0
 12 15  2  0  0  0  0
 13 14  2  0  0  0  0
 13 15  1  0  0  0  0
M  END
