1429
 OpenBabel10141417493D

 24 26  0  0  1  0  0  0  0  0999 V2000
    2.4545   -1.7210    1.2952 N   0  0  0  0  0  0  0  0  0  0  0  0
    0.4008    1.6042    4.5363 N   0  0  0  0  0  0  0  0  0  0  0  0
    1.7805   -3.0699    1.2677 C   0  0  0  0  0  0  0  0  0  0  0  0
    0.2320   -3.0874    1.3189 C   0  0  0  0  0  0  0  0  0  0  0  0
    2.1217   -3.8687   -0.0378 C   0  0  0  0  0  0  0  0  0  0  0  0
   -0.1422   -3.1452   -0.1314 C   0  0  0  0  0  0  0  0  0  0  0  0
    0.9124   -3.6434   -0.8931 C   0  0  0  0  0  0  0  0  0  0  0  0
    1.6521   -0.4718    1.4376 C   0  0  0  0  0  0  0  0  0  0  0  0
    1.4484   -0.0665    2.9158 C   0  0  0  0  0  0  0  0  0  0  0  0
    3.8510   -1.6892    1.5007 C   0  0  0  0  0  0  0  0  0  0  0  0
   -1.3492   -2.8071   -0.7196 C   0  0  0  0  0  0  0  0  0  0  0  0
    0.7711   -3.8801   -2.2535 C   0  0  0  0  0  0  0  0  0  0  0  0
    0.5411    1.1793    3.1216 C   0  0  0  0  0  0  0  0  0  0  0  0
   -1.4764   -2.9657   -2.1025 C   0  0  0  0  0  0  0  0  0  0  0  0
   -0.4312   -3.5128   -2.8602 C   0  0  0  0  0  0  0  0  0  0  0  0
    4.6211   -2.8555    1.6812 C   0  0  0  0  0  0  0  0  0  0  0  0
    4.5902   -0.4874    1.5188 C   0  0  0  0  0  0  0  0  0  0  0  0
   -0.4432    2.8031    4.7339 C   0  0  0  0  0  0  0  0  0  0  0  0
   -0.0471    0.5356    5.4499 C   0  0  0  0  0  0  0  0  0  0  0  0
    6.0058   -2.8474    1.8934 C   0  0  0  0  0  0  0  0  0  0  0  0
    5.9782   -0.4655    1.7436 C   0  0  0  0  0  0  0  0  0  0  0  0
    0.0680    4.0815    4.0845 C   0  0  0  0  0  0  0  0  0  0  0  0
   -1.4034   -0.0919    5.1301 C   0  0  0  0  0  0  0  0  0  0  0  0
    6.6870   -1.6371    1.9372 C   0  0  0  0  0  0  0  0  0  0  0  0
  1  3  1  0  0  0  0
  1  8  1  0  0  0  0
  1 10  1  0  0  0  0
  2 13  1  0  0  0  0
  2 18  1  0  0  0  0
  2 19  1  0  0  0  0
  3  4  1  0  0  0  0
  3  5  1  0  0  0  0
  4  6  1  0  0  0  0
  5  7  1  0  0  0  0
  6  7  1  0  0  0  0
  6 11  2  0  0  0  0
  7 12  2  0  0  0  0
  8  9  1  0  0  0  0
  9 13  1  0  0  0  0
 10 16  2  0  0  0  0
 10 17  1  0  0  0  0
 11 14  1  0  0  0  0
 12 15  1  0  0  0  0
 14 15  2  0  0  0  0
 16 20  1  0  0  0  0
 17 21  2  0  0  0  0
 18 22  1  0  0  0  0
 19 23  1  0  0  0  0
 20 24  2  0  0  0  0
 21 24  1  0  0  0  0
M  END
