
 OpenBabel10141417483D

 15 15  0  0  0  0  0  0  0  0999 V2000
    0.7547    0.2003    0.1382 C   0  0  0  0  0  0  0  0  0  0  0  0
    2.2062   -0.0809   -0.2843 C   0  0  0  0  0  0  0  0  0  0  0  0
    2.9928    1.2371   -0.1885 C   0  0  0  0  0  0  0  0  0  0  0  0
    2.8788   -1.2780    0.4974 C   0  0  0  0  0  0  0  0  0  0  0  0
    2.9622   -1.0210    2.0246 C   0  0  0  0  0  0  0  0  0  0  0  0
    3.6321   -2.1207    2.8181 C   0  0  0  0  0  0  0  0  0  0  0  0
    4.2800   -1.4679   -0.0834 C   0  0  0  0  0  0  0  0  0  0  0  0
    5.3018   -0.9956    0.4094 O   0  0  0  0  0  0  0  0  0  0  0  0
    4.3501   -2.1498   -1.2657 N   0  0  0  0  0  0  0  0  0  0  0  0
    3.5002   -3.1577   -1.5899 C   0  0  0  0  0  0  0  0  0  0  0  0
    3.8333   -4.0506   -2.3623 O   0  0  0  0  0  0  0  0  0  0  0  0
    2.3060   -3.1884   -0.9430 N   0  0  0  0  0  0  0  0  0  0  0  0
    2.0406   -2.5278    0.2255 C   0  0  0  0  0  0  0  0  0  0  0  0
    1.1127   -2.9060    0.9373 O   0  0  0  0  0  0  0  0  0  0  0  0
    2.9881   -2.9302    3.6680 C   0  0  0  0  0  0  0  0  0  0  0  0
  1  2  1  0  0  0  0
  2  3  1  0  0  0  0
  2  4  1  0  0  0  0
  4  5  1  0  0  0  0
  4  7  1  0  0  0  0
  4 13  1  0  0  0  0
  5  6  1  0  0  0  0
  7  8  2  0  0  0  0
  7  9  1  0  0  0  0
  9 10  1  0  0  0  0
 10 11  2  0  0  0  0
 10 12  1  0  0  0  0
 12 13  1  0  0  0  0
 13 14  2  0  0  0  0
 15  6  2  0  0  0  0
M  END
