ChEBI
 OpenBabel10141417553D

 38 40  0  0  1  0  0  0  0  0999 V2000
   -8.1180    4.5296    1.6933 C   0  0  2  0  0  0  0  0  0  0  0  0
   -9.4851    3.9900    1.2332 C   0  0  0  0  0  0  0  0  0  0  0  0
   -9.6358    3.9145   -0.2875 C   0  0  0  0  0  0  0  0  0  0  0  0
   -8.3831    3.2944   -0.9055 C   0  0  2  0  0  0  0  0  0  0  0  0
   -7.1230    4.1172   -0.4540 C   0  0  2  0  0  0  0  0  0  0  0  0
   -7.0124    3.9811    0.9667 O   0  0  0  0  0  0  0  0  0  0  0  0
   -7.1501    5.5049   -0.8829 O   0  0  0  0  0  0  0  0  0  0  0  0
   -5.8885    6.2526   -0.6894 C   0  0  1  0  0  0  0  0  0  0  0  0
   -4.7036    5.5379   -1.4323 C   0  0  1  0  0  0  0  0  0  0  0  0
   -3.5336    6.4257   -1.9547 C   0  0  2  0  0  0  0  0  0  0  0  0
   -3.4822    7.7369   -1.1920 C   0  0  1  0  0  0  0  0  0  0  0  0
   -4.7695    8.4933   -1.5325 C   0  0  0  0  0  0  0  0  0  0  0  0
   -6.0726    7.7393   -1.1899 C   0  0  2  0  0  0  0  0  0  0  0  0
   -3.7378    6.6218   -3.3848 O   0  0  0  0  0  0  0  0  0  0  0  0
   -7.8300    4.2211    3.1813 C   0  0  0  0  0  0  0  0  0  0  0  0
   -8.5296    3.0697   -2.3522 N   0  0  0  0  0  0  0  0  0  0  0  0
   -6.7897    8.6769   -0.2884 N   0  0  0  0  0  0  0  0  0  0  0  0
   -4.1816    4.4475   -0.6469 O   0  0  0  0  0  0  0  0  0  0  0  0
   -8.8748    4.6395    4.1132 N   0  0  0  0  0  0  0  0  0  0  0  0
   -2.8481    7.2483   -4.3467 C   0  0  1  0  0  0  0  0  0  0  0  0
   -2.3476    8.5552   -4.0371 O   0  0  0  0  0  0  0  0  0  0  0  0
   -1.0484    8.6678   -3.4344 C   0  0  1  0  0  0  0  0  0  0  0  0
   -0.1724    7.3943   -3.2695 C   0  0  2  0  0  0  0  0  0  0  0  0
   -0.7978    6.0735   -3.7691 C   0  0  1  0  0  0  0  0  0  0  0  0
   -1.7190    6.3819   -4.9397 C   0  0  1  0  0  0  0  0  0  0  0  0
   -0.1974    9.8080   -4.0433 C   0  0  0  0  0  0  0  0  0  0  0  0
    0.1147    9.6369   -5.4194 O   0  0  0  0  0  0  0  0  0  0  0  0
    0.2296    7.3600   -1.8852 O   0  0  0  0  0  0  0  0  0  0  0  0
    0.1684    4.9978   -4.0826 N   0  0  0  0  0  0  0  0  0  0  0  0
   -2.1816    5.1967   -5.5848 O   0  0  0  0  0  0  0  0  0  0  0  0
   -3.1027    7.8460    0.2340 N   0  0  0  0  0  0  0  0  0  0  0  0
   -3.1115    6.2104    3.4663 C   0  0  0  0  0  0  0  0  0  0  0  0
   -3.4205    4.7366    3.2110 C   0  0  0  0  0  0  0  0  0  0  0  0
   -4.2382    4.6391    2.0227 N   0  0  0  0  0  0  0  0  0  0  0  0
   -2.4192    6.8859    0.9531 C   0  0  0  0  0  0  0  0  0  0  0  0
   -2.0687    5.8890    0.4217 O   0  0  0  0  0  0  0  0  0  0  0  0
   -2.1744    6.9573    2.4921 C   0  0  1  0  0  0  0  0  0  0  0  0
   -2.1583    8.3046    2.9747 O   0  0  0  0  0  0  0  0  0  0  0  0
  1  2  1  0  0  0  0
  1 15  1  1  0  0  0
  2  3  1  0  0  0  0
  3  4  1  0  0  0  0
  4  5  1  0  0  0  0
  4 16  1  6  0  0  0
  5  6  1  0  0  0  0
  5  7  1  1  0  0  0
  6  1  1  0  0  0  0
  8  7  1  6  0  0  0
  8  9  1  0  0  0  0
  9 10  1  0  0  0  0
  9 18  1  1  0  0  0
 10 11  1  0  0  0  0
 10 14  1  6  0  0  0
 11 12  1  0  0  0  0
 11 31  1  1  0  0  0
 12 13  1  0  0  0  0
 13  8  1  0  0  0  0
 13 17  1  1  0  0  0
 15 19  1  0  0  0  0
 20 14  1  1  0  0  0
 20 21  1  0  0  0  0
 21 22  1  0  0  0  0
 22 26  1  6  0  0  0
 22 23  1  0  0  0  0
 23 24  1  0  0  0  0
 23 28  1  1  0  0  0
 24 29  1  6  0  0  0
 24 25  1  0  0  0  0
 25 20  1  0  0  0  0
 25 30  1  1  0  0  0
 26 27  1  0  0  0  0
 31 35  1  0  0  0  0
 32 33  1  0  0  0  0
 33 34  1  0  0  0  0
 35 36  2  0  0  0  0
 37 38  1  1  0  0  0
 37 32  1  0  0  0  0
 37 35  1  0  0  0  0
M  END
