1274
 OpenBabel10141417513D

 25 26  0  0  1  0  0  0  0  0999 V2000
    0.1088    0.4763   -0.4159 O   0  0  0  0  0  0  0  0  0  0  0  0
    4.9000    9.2451   -4.0282 O   0  0  0  0  0  0  0  0  0  0  0  0
    1.9770   -2.2242    4.9361 O   0  0  0  0  0  0  0  0  0  0  0  0
   -0.5487    1.8503    5.8677 O   0  0  0  0  0  0  0  0  0  0  0  0
    2.0731    2.3115   -1.4734 N   0  0  0  0  0  0  0  0  0  0  0  0
    0.5743    0.2414    4.7697 N   0  0  0  0  0  0  0  0  0  0  0  0
    2.7252    3.6412   -1.5515 C   0  0  1  0  0  0  0  0  0  0  0  0
    2.5049    4.1874   -2.9842 C   0  0  0  0  0  0  0  0  0  0  0  0
    2.2223    1.6641   -0.1552 C   0  0  0  0  0  0  0  0  0  0  0  0
    1.4974    0.2922   -0.1251 C   0  0  1  0  0  0  0  0  0  0  0  0
    2.1886    4.6406   -0.5154 C   0  0  0  0  0  0  0  0  0  0  0  0
    3.1438    5.5296   -3.2519 C   0  0  0  0  0  0  0  0  0  0  0  0
    1.6078   -0.3782    1.2264 C   0  0  0  0  0  0  0  0  0  0  0  0
    1.0440    0.2310    2.3629 C   0  0  0  0  0  0  0  0  0  0  0  0
    4.5281    5.7246   -3.1492 C   0  0  0  0  0  0  0  0  0  0  0  0
    2.3348    6.6118   -3.6079 C   0  0  0  0  0  0  0  0  0  0  0  0
    2.2584   -1.6084    1.3675 C   0  0  0  0  0  0  0  0  0  0  0  0
    1.1388   -0.3494    3.6321 C   0  0  0  0  0  0  0  0  0  0  0  0
    2.3490   -2.2107    2.6226 C   0  0  0  0  0  0  0  0  0  0  0  0
    5.0884    6.9834   -3.4011 C   0  0  0  0  0  0  0  0  0  0  0  0
    2.8965    7.8576   -3.8748 C   0  0  0  0  0  0  0  0  0  0  0  0
    1.8067   -1.5795    3.7412 C   0  0  0  0  0  0  0  0  0  0  0  0
    4.2748    8.0491   -3.7906 C   0  0  0  0  0  0  0  0  0  0  0  0
   -0.0861    1.4296    4.8317 C   0  0  0  0  0  0  0  0  0  0  0  0
    4.2305   10.0940   -4.9604 C   0  0  0  0  0  0  0  0  0  0  0  0
  2 23  1  0  0  0  0
  2 25  1  0  0  0  0
  3 22  1  0  0  0  0
  4 24  2  0  0  0  0
  5  9  1  0  0  0  0
  6 18  1  0  0  0  0
  6 24  1  0  0  0  0
  7  5  1  6  0  0  0
  7  8  1  0  0  0  0
  7 11  1  0  0  0  0
  8 12  1  0  0  0  0
  9 10  1  0  0  0  0
 10  1  1  1  0  0  0
 10 13  1  0  0  0  0
 12 15  2  0  0  0  0
 12 16  1  0  0  0  0
 13 14  2  0  0  0  0
 13 17  1  0  0  0  0
 14 18  1  0  0  0  0
 15 20  1  0  0  0  0
 16 21  2  0  0  0  0
 17 19  2  0  0  0  0
 18 22  2  0  0  0  0
 19 22  1  0  0  0  0
 20 23  2  0  0  0  0
 21 23  1  0  0  0  0
M  END
