152951
 OpenBabel10141417483D

 35 37  0  0  1  0  0  0  0  0999 V2000
   -0.5303    4.3548   -2.9779 S   0  0  0  0  0  0  0  0  0  0  0  0
   -1.8403    1.0866   -3.5337 O   0  0  0  0  0  0  0  0  0  0  0  0
   -4.7313   -1.8727   -4.6302 O   0  0  0  0  0  0  0  0  0  0  0  0
   -3.0505   -2.0919   -3.2253 O   0  0  0  0  0  0  0  0  0  0  0  0
    0.6481    3.6193   -3.3712 O   0  0  0  0  0  0  0  0  0  0  0  0
   -0.3881    5.7270   -2.5037 O   0  0  0  0  0  0  0  0  0  0  0  0
   -3.3762    0.4335   -1.9189 N   0  0  0  0  0  0  0  0  0  0  0  0
   -1.2367    3.5765   -1.6181 N   0  0  0  0  0  0  0  0  0  0  0  0
   -3.4008    3.2640   -3.1202 N   0  0  0  0  0  0  0  0  0  0  0  0
   -4.8684    4.0242    1.3157 N   0  0  0  0  0  0  0  0  0  0  0  0
   -4.5579    6.2434    2.1491 N   0  0  0  0  0  0  0  0  0  0  0  0
   -6.4436    5.1537    2.5072 N   0  0  0  0  0  0  0  0  0  0  0  0
   -6.0131   -0.8109   -1.2974 C   0  0  1  0  0  0  0  0  0  0  0  0
   -5.8653    0.0373   -2.5108 C   0  0  0  0  0  0  0  0  0  0  0  0
   -4.2946   -0.0542   -2.9447 C   0  0  2  0  0  0  0  0  0  0  0  0
   -5.1499   -0.1337   -0.2624 C   0  0  0  0  0  0  0  0  0  0  0  0
   -3.6686   -0.2102   -0.6748 C   0  0  0  0  0  0  0  0  0  0  0  0
   -1.3775    2.0742   -1.3797 C   0  0  2  0  0  0  0  0  0  0  0  0
   -2.1888    1.1184   -2.3387 C   0  0  0  0  0  0  0  0  0  0  0  0
   -7.4597   -0.9719   -0.8906 C   0  0  0  0  0  0  0  0  0  0  0  0
   -3.9329   -1.4364   -3.5946 C   0  0  0  0  0  0  0  0  0  0  0  0
   -1.7499    1.9880    0.1266 C   0  0  0  0  0  0  0  0  0  0  0  0
   -5.4680    2.3915   -4.2681 C   0  0  2  0  0  0  0  0  0  0  0  0
   -5.2215    3.4066   -5.3365 C   0  0  0  0  0  0  0  0  0  0  0  0
   -2.9848    3.9360   -4.2303 C   0  0  0  0  0  0  0  0  0  0  0  0
   -3.8826    4.0684   -5.2938 C   0  0  0  0  0  0  0  0  0  0  0  0
   -4.7630    2.8971   -2.9364 C   0  0  0  0  0  0  0  0  0  0  0  0
   -1.6987    4.4679   -4.3201 C   0  0  0  0  0  0  0  0  0  0  0  0
   -3.1429    2.4436    0.6932 C   0  0  0  0  0  0  0  0  0  0  0  0
   -5.3043    1.0784   -5.1236 C   0  0  0  0  0  0  0  0  0  0  0  0
   -3.5890    4.9163   -6.3414 C   0  0  0  0  0  0  0  0  0  0  0  0
   -1.3825    5.2741   -5.4206 C   0  0  0  0  0  0  0  0  0  0  0  0
   -3.5136    3.9228    0.7483 C   0  0  0  0  0  0  0  0  0  0  0  0
   -2.3519    5.5320   -6.3977 C   0  0  0  0  0  0  0  0  0  0  0  0
   -5.2179    5.0844    1.9397 C   0  0  0  0  0  0  0  0  0  0  0  0
  1  5  2  0  0  0  0
  1  6  2  0  0  0  0
  1  8  1  0  0  0  0
  1 28  1  0  0  0  0
  2 19  2  0  0  0  0
  3 21  1  0  0  0  0
  4 21  2  0  0  0  0
  7 15  1  0  0  0  0
  7 17  1  0  0  0  0
  7 19  1  0  0  0  0
  9 25  1  0  0  0  0
  9 27  1  0  0  0  0
 10 33  1  0  0  0  0
 10 35  2  0  0  0  0
 11 35  1  0  0  0  0
 12 35  1  0  0  0  0
 13 14  1  0  0  0  0
 13 16  1  0  0  0  0
 13 20  1  1  0  0  0
 14 15  1  0  0  0  0
 15 21  1  1  0  0  0
 16 17  1  0  0  0  0
 18 22  1  1  0  0  0
 18 19  1  0  0  0  0
 18  8  1  0  0  0  0
 22 29  1  0  0  0  0
 23 24  1  0  0  0  0
 23 27  1  0  0  0  0
 23 30  1  6  0  0  0
 24 26  1  0  0  0  0
 25 26  2  0  0  0  0
 25 28  1  0  0  0  0
 26 31  1  0  0  0  0
 28 32  2  0  0  0  0
 29 33  1  0  0  0  0
 31 34  2  0  0  0  0
 32 34  1  0  0  0  0
M  END
