
 OpenBabel10141417553D

 21 24  0  0  1  0  0  0  0  0999 V2000
   -0.3929   -1.0195   -0.5268 C   0  0  2  0  0  0  0  0  0  0  0  0
    0.5944   -0.8693   -1.7182 C   0  0  1  0  0  0  0  0  0  0  0  0
    0.1723   -0.2257    0.6717 C   0  0  2  0  0  0  0  0  0  0  0  0
   -1.8078   -0.4743   -0.8342 C   0  0  2  0  0  0  0  0  0  0  0  0
   -0.5783   -2.3993   -0.1538 O   0  0  0  0  0  0  0  0  0  0  0  0
    0.1783   -1.6092   -2.8687 O   0  0  0  0  0  0  0  0  0  0  0  0
    1.9260   -1.2525   -1.3628 O   0  0  0  0  0  0  0  0  0  0  0  0
    1.6355   -0.6170    0.9893 C   0  0  2  0  0  0  0  0  0  0  0  0
   -0.7627   -0.1666    1.8942 C   0  0  0  0  0  0  0  0  0  0  0  0
   -2.7835   -0.6823    0.3667 C   0  0  1  0  0  0  0  0  0  0  0  0
   -2.4150   -1.0360   -2.1382 C   0  0  0  0  0  0  0  0  0  0  0  0
   -0.0847   -3.2733   -1.2165 O   0  0  0  0  0  0  0  0  0  0  0  0
   -0.5414   -2.7803   -2.4804 C   0  0  2  0  0  0  0  0  0  0  0  0
    2.4710   -0.4615   -0.3068 C   0  0  1  0  0  0  0  0  0  0  0  0
    1.8106   -2.0161    1.5967 C   0  0  0  0  0  0  0  0  0  0  0  0
   -2.0840   -0.9102    1.7226 C   0  0  0  0  0  0  0  0  0  0  0  0
   -3.7565    0.5003    0.4668 C   0  0  0  0  0  0  0  0  0  0  0  0
   -2.0603   -2.4931   -2.4682 C   0  0  0  0  0  0  0  0  0  0  0  0
   -0.2210   -3.8695   -3.5016 C   0  0  0  0  0  0  0  0  0  0  0  0
    3.8247   -0.8600   -0.1004 O   0  0  0  0  0  0  0  0  0  0  0  0
    4.6320    0.1574    0.4700 C   0  0  0  0  0  0  0  0  0  0  0  0
  1  2  1  0  0  0  0
  1  3  1  0  0  0  0
  1  4  1  0  0  0  0
  1  5  1  6  0  0  0
  2  6  1  1  0  0  0
  2  7  1  0  0  0  0
  3  8  1  0  0  0  0
  3  9  1  1  0  0  0
  4 10  1  0  0  0  0
  4 11  1  6  0  0  0
  5 12  1  0  0  0  0
  6 13  1  0  0  0  0
  7 14  1  0  0  0  0
  8 14  1  0  0  0  0
  8 15  1  6  0  0  0
  9 16  1  0  0  0  0
 10 17  1  1  0  0  0
 10 16  1  0  0  0  0
 11 18  1  0  0  0  0
 13 19  1  1  0  0  0
 13 12  1  0  0  0  0
 13 18  1  0  0  0  0
 14 20  1  1  0  0  0
 20 21  1  0  0  0  0
M  END
