
 OpenBabel10141417483D

 28 30  0  0  1  0  0  0  0  0999 V2000
    1.6929   -1.9228   -2.0673 Cl  0  0  0  0  0  0  0  0  0  0  0  0
    7.3529    0.0974    0.8719 O   0  0  0  0  0  0  0  0  0  0  0  0
    0.5722    1.0935    0.9600 O   0  0  0  0  0  0  0  0  0  0  0  0
    4.8572   -1.3715   -2.4967 O   0  0  0  0  0  0  0  0  0  0  0  0
    1.3207    1.2055   -1.1229 O   0  0  0  0  0  0  0  0  0  0  0  0
    6.2996   -1.7457   -1.0837 O   0  0  0  0  0  0  0  0  0  0  0  0
    4.1881    3.6328   -0.6533 N   0  0  0  0  0  0  0  0  0  0  0  0
    5.9876    2.1855   -1.0821 C   0  0  3  0  0  0  0  0  0  0  0  0
    6.3679    3.0092    0.1682 C   0  0  3  0  0  0  0  0  0  0  0  0
    5.0448    3.1932   -1.7617 C   0  0  0  0  0  0  0  0  0  0  0  0
    5.0455    3.7308    0.5335 C   0  0  0  0  0  0  0  0  0  0  0  0
    5.3133    0.8730   -0.7793 C   0  0  0  0  0  0  0  0  0  0  0  0
    7.1265    2.5083    1.3817 C   0  0  0  0  0  0  0  0  0  0  0  0
    3.4371    4.8411   -0.9390 C   0  0  0  0  0  0  0  0  0  0  0  0
    6.0714   -0.1664    0.4861 C   0  0  0  0  0  0  0  0  0  0  0  0
    7.5397    1.2002    1.6548 C   0  0  0  0  0  0  0  0  0  0  0  0
    3.8070    0.3133   -1.6430 C   0  0  0  0  0  0  0  0  0  0  0  0
    7.5259    3.5075    2.3074 C   0  0  0  0  0  0  0  0  0  0  0  0
    5.3523   -1.8006    0.9043 C   0  0  0  0  0  0  0  0  0  0  0  0
    8.3303    0.9199    2.7858 C   0  0  0  0  0  0  0  0  0  0  0  0
    3.0674   -1.3243   -1.2207 C   0  0  0  0  0  0  0  0  0  0  0  0
    8.2974    3.2214    3.4364 C   0  0  0  0  0  0  0  0  0  0  0  0
    3.8586   -2.3663    0.0384 C   0  0  0  0  0  0  0  0  0  0  0  0
    8.7040    1.9201    3.6762 C   0  0  0  0  0  0  0  0  0  0  0  0
    2.7650    0.4048    0.7071 C   0  0  0  0  0  0  0  0  0  0  0  0
    3.9402   -0.2724    0.3533 C   0  0  0  0  0  0  0  0  0  0  0  0
    1.5408    0.9297    0.0372 C   0  0  0  0  0  0  0  0  0  0  0  0
    5.1698   -1.1975   -1.1173 C   0  0  0  0  0  0  0  0  0  0  0  0
  1 21  1  0  0  0  0
  2 15  1  0  0  0  0
  2 16  1  0  0  0  0
  3 27  1  0  0  0  0
  4 28  1  0  0  0  0
  5 27  2  0  0  0  0
  6 28  2  0  0  0  0
  7 10  1  0  0  0  0
  7 11  1  0  0  0  0
  7 14  1  0  0  0  0
  8  9  1  0  0  0  0
  8 10  1  0  0  0  0
  8 12  1  0  0  0  0
  9 11  1  0  0  0  0
  9 13  1  0  0  0  0
 12 15  2  0  0  0  0
 12 17  1  0  0  0  0
 13 16  1  0  0  0  0
 13 18  2  0  0  0  0
 15 19  1  0  0  0  0
 16 20  2  0  0  0  0
 17 21  2  0  0  0  0
 18 22  1  0  0  0  0
 19 23  2  0  0  0  0
 20 24  1  0  0  0  0
 21 23  1  0  0  0  0
 22 24  2  0  0  0  0
 25 26  2  0  0  0  0
 25 27  1  0  0  0  0
 26 28  1  0  0  0  0
M  END
