1072
 OpenBabel10141417523D

 51 53  0  0  1  0  0  0  0  0999 V2000
    3.4369    2.0707    2.8794 O   0  0  0  0  0  0  0  0  0  0  0  0
   -0.7231    0.2163    0.6099 O   0  0  0  0  0  0  0  0  0  0  0  0
    4.9928    3.5754   -3.3232 O   0  0  0  0  0  0  0  0  0  0  0  0
   -2.2032    3.8625    1.5830 O   0  0  0  0  0  0  0  0  0  0  0  0
    5.6871    7.3636    0.0985 O   0  0  0  0  0  0  0  0  0  0  0  0
   -1.9915    5.6928    0.2240 O   0  0  0  0  0  0  0  0  0  0  0  0
    3.4762    6.8556    0.4383 O   0  0  0  0  0  0  0  0  0  0  0  0
    0.2505    2.2163    1.0436 N   0  0  0  0  0  0  0  0  0  0  0  0
    4.5354    2.9403    0.1693 N   0  0  0  0  0  0  0  0  0  0  0  0
   -1.5214    3.6327   -0.5333 N   0  0  0  0  0  0  0  0  0  0  0  0
    4.9644    2.8513   -1.1763 N   0  0  0  0  0  0  0  0  0  0  0  0
    4.7095    5.9765   -1.3134 N   0  0  0  0  0  0  0  0  0  0  0  0
    7.6013   -3.3997    1.2563 N   0  0  0  0  0  0  0  0  0  0  0  0
   -2.1307    1.5864   -1.8533 C   0  0  0  0  0  0  0  0  0  0  0  0
    1.2344    1.6969    1.9976 C   0  0  2  0  0  0  0  0  0  0  0  0
   -1.7776    2.1882   -0.4483 C   0  0  1  0  0  0  0  0  0  0  0  0
    2.5976    2.4272    1.7987 C   0  0  2  0  0  0  0  0  0  0  0  0
    2.6815    5.5013   -2.7521 C   0  0  0  0  0  0  0  0  0  0  0  0
    3.2653    2.2084    0.4129 C   0  0  0  0  0  0  0  0  0  0  0  0
    3.7415    4.9638   -1.7407 C   0  0  1  0  0  0  0  0  0  0  0  0
    0.7018    1.6741    3.4890 C   0  0  0  0  0  0  0  0  0  0  0  0
   -0.6979    1.4299    0.4217 C   0  0  0  0  0  0  0  0  0  0  0  0
   -2.3533    0.0658   -1.7746 C   0  0  0  0  0  0  0  0  0  0  0  0
   -3.4653    2.1976   -2.3595 C   0  0  0  0  0  0  0  0  0  0  0  0
   -1.0535    1.8927   -2.9099 C   0  0  0  0  0  0  0  0  0  0  0  0
    4.5680    3.7306   -2.1757 C   0  0  0  0  0  0  0  0  0  0  0  0
    1.7623    4.3485   -3.2009 C   0  0  0  0  0  0  0  0  0  0  0  0
    1.7910    6.5394   -2.0292 C   0  0  0  0  0  0  0  0  0  0  0  0
    3.2770    6.1777   -3.9978 C   0  0  0  0  0  0  0  0  0  0  0  0
    5.6419    2.8066    1.1423 C   0  0  0  0  0  0  0  0  0  0  0  0
    0.3119    2.9883    4.1538 C   0  0  0  0  0  0  0  0  0  0  0  0
    6.4008    1.4855    1.1757 C   0  0  0  0  0  0  0  0  0  0  0  0
   -1.9383    4.5182    0.4150 C   0  0  0  0  0  0  0  0  0  0  0  0
    1.0306    4.1693    3.9444 C   0  0  0  0  0  0  0  0  0  0  0  0
   -0.7494    3.0618    5.0663 C   0  0  0  0  0  0  0  0  0  0  0  0
    4.5406    6.7425   -0.2053 C   0  0  0  0  0  0  0  0  0  0  0  0
    6.0049    0.4090    1.9767 C   0  0  0  0  0  0  0  0  0  0  0  0
    7.5912    1.3160    0.4572 C   0  0  0  0  0  0  0  0  0  0  0  0
    0.7492    5.3672    4.5904 C   0  0  0  0  0  0  0  0  0  0  0  0
   -1.0690    4.2810    5.6949 C   0  0  0  0  0  0  0  0  0  0  0  0
   -0.2872    5.4182    5.4972 C   0  0  0  0  0  0  0  0  0  0  0  0
    6.6743   -0.8070    1.9929 C   0  0  0  0  0  0  0  0  0  0  0  0
    8.2758    0.0842    0.4712 C   0  0  0  0  0  0  0  0  0  0  0  0
    7.8008   -1.0119    1.2113 C   0  0  0  0  0  0  0  0  0  0  0  0
   -2.4957    4.7490    2.6508 C   0  0  0  0  0  0  0  0  0  0  0  0
    8.4434   -2.3287    1.2521 C   0  0  0  0  0  0  0  0  0  0  0  0
    5.6437    8.2524    1.2159 C   0  0  0  0  0  0  0  0  0  0  0  0
    9.8185   -2.4706    1.3624 C   0  0  0  0  0  0  0  0  0  0  0  0
   10.3548   -3.7495    1.4586 C   0  0  0  0  0  0  0  0  0  0  0  0
    8.1476   -4.6301    1.3486 C   0  0  0  0  0  0  0  0  0  0  0  0
    9.5085   -4.8519    1.4469 C   0  0  0  0  0  0  0  0  0  0  0  0
  2 22  2  0  0  0  0
  3 26  2  0  0  0  0
  4 33  1  0  0  0  0
  4 45  1  0  0  0  0
  5 36  1  0  0  0  0
  5 47  1  0  0  0  0
  6 33  2  0  0  0  0
  7 36  2  0  0  0  0
  8 22  1  0  0  0  0
  9 11  1  0  0  0  0
  9 19  1  0  0  0  0
  9 30  1  0  0  0  0
 10 33  1  0  0  0  0
 11 26  1  0  0  0  0
 12 36  1  0  0  0  0
 13 46  1  0  0  0  0
 13 50  2  0  0  0  0
 14 16  1  0  0  0  0
 14 23  1  0  0  0  0
 14 24  1  0  0  0  0
 14 25  1  0  0  0  0
 15  8  1  1  0  0  0
 15 21  1  0  0  0  0
 16 10  1  6  0  0  0
 16 22  1  0  0  0  0
 17 19  1  6  0  0  0
 17 15  1  0  0  0  0
 17  1  1  0  0  0  0
 18 20  1  0  0  0  0
 18 27  1  0  0  0  0
 18 28  1  0  0  0  0
 18 29  1  0  0  0  0
 20 12  1  6  0  0  0
 20 26  1  0  0  0  0
 21 31  1  0  0  0  0
 30 32  1  0  0  0  0
 31 34  2  0  0  0  0
 31 35  1  0  0  0  0
 32 37  2  0  0  0  0
 32 38  1  0  0  0  0
 34 39  1  0  0  0  0
 35 40  2  0  0  0  0
 37 42  1  0  0  0  0
 38 43  2  0  0  0  0
 39 41  2  0  0  0  0
 40 41  1  0  0  0  0
 42 44  2  0  0  0  0
 43 44  1  0  0  0  0
 44 46  1  0  0  0  0
 46 48  2  0  0  0  0
 48 49  1  0  0  0  0
 49 51  2  0  0  0  0
 50 51  1  0  0  0  0
M  END
