335
 OpenBabel10141417543D

 19 19  0  0  1  0  0  0  0  0999 V2000
    0.8727   -0.2915    0.5738 O   0  0  0  0  0  0  0  0  0  0  0  0
   -1.7151    0.3223    1.6843 O   0  0  0  0  0  0  0  0  0  0  0  0
    7.9196   -2.2897   -0.3301 O   0  0  0  0  0  0  0  0  0  0  0  0
   -3.5785    1.8199   -0.0549 N   0  0  0  0  0  0  0  0  0  0  0  0
    7.0713   -2.1388    1.7509 N   0  0  0  0  0  0  0  0  0  0  0  0
   -2.1135    2.0061    0.0048 C   0  0  0  0  0  0  0  0  0  0  0  0
   -1.3452    0.7073    0.3460 C   0  0  3  0  0  0  0  0  0  0  0  0
   -4.3061    3.0711   -0.3315 C   0  0  0  0  0  0  0  0  0  0  0  0
    0.1841    0.9395    0.2730 C   0  0  0  0  0  0  0  0  0  0  0  0
   -5.8160    2.8139   -0.4255 C   0  0  0  0  0  0  0  0  0  0  0  0
   -4.0471    4.1485    0.7251 C   0  0  0  0  0  0  0  0  0  0  0  0
    2.2441   -0.2443    0.5083 C   0  0  0  0  0  0  0  0  0  0  0  0
    5.0687   -0.3483    0.3236 C   0  0  0  0  0  0  0  0  0  0  0  0
    3.0166    0.8810    0.7941 C   0  0  0  0  0  0  0  0  0  0  0  0
    2.8932   -1.4354    0.1726 C   0  0  0  0  0  0  0  0  0  0  0  0
    4.4133    0.8343    0.6864 C   0  0  0  0  0  0  0  0  0  0  0  0
    4.2899   -1.4851    0.0648 C   0  0  0  0  0  0  0  0  0  0  0  0
    6.5746   -0.3455    0.1665 C   0  0  0  0  0  0  0  0  0  0  0  0
    7.2471   -1.6752    0.4727 C   0  0  0  0  0  0  0  0  0  0  0  0
  1  9  1  0  0  0  0
  1 12  1  0  0  0  0
  2  7  1  0  0  0  0
  3 19  2  0  0  0  0
  4  6  1  0  0  0  0
  4  8  1  0  0  0  0
  5 19  1  0  0  0  0
  6  7  1  0  0  0  0
  7  9  1  0  0  0  0
  8 10  1  0  0  0  0
  8 11  1  0  0  0  0
 12 14  2  0  0  0  0
 12 15  1  0  0  0  0
 13 16  2  0  0  0  0
 13 17  1  0  0  0  0
 13 18  1  0  0  0  0
 14 16  1  0  0  0  0
 15 17  2  0  0  0  0
 18 19  1  0  0  0  0
M  END
