54841
 OpenBabel10141417523D

 19 20  0  0  1  0  0  0  0  0999 V2000
    0.1910    1.4786    3.3374 O   0  0  0  0  0  0  0  0  0  0  0  0
   -2.3512    3.1535    0.4754 N   0  0  0  0  0  0  0  0  0  0  0  0
   -0.9088    0.8867    2.6399 C   0  0  2  0  0  0  0  0  0  0  0  0
   -0.8763    1.1554    1.1099 C   0  0  0  0  0  0  0  0  0  0  0  0
   -2.2566    1.1287    3.2978 C   0  0  0  0  0  0  0  0  0  0  0  0
   -1.0168    2.5507    0.5055 C   0  0  0  0  0  0  0  0  0  0  0  0
    0.8347    0.8094    4.3601 C   0  0  0  0  0  0  0  0  0  0  0  0
   -2.5473    2.3203    3.9731 C   0  0  0  0  0  0  0  0  0  0  0  0
   -3.2747    0.1596    3.1931 C   0  0  0  0  0  0  0  0  0  0  0  0
    0.5209   -0.4256    5.0151 C   0  0  0  0  0  0  0  0  0  0  0  0
   -3.8596    2.6134    4.3571 C   0  0  0  0  0  0  0  0  0  0  0  0
   -4.5715    0.4291    3.6349 C   0  0  0  0  0  0  0  0  0  0  0  0
    1.9788    1.5089    4.7966 C   0  0  0  0  0  0  0  0  0  0  0  0
   -4.8748    1.6693    4.1606 C   0  0  0  0  0  0  0  0  0  0  0  0
   -2.2462    4.4743   -0.1504 C   0  0  0  0  0  0  0  0  0  0  0  0
    1.3410   -0.8429    6.0790 C   0  0  0  0  0  0  0  0  0  0  0  0
   -0.6723   -1.3001    4.7870 C   0  0  0  0  0  0  0  0  0  0  0  0
    2.7866    1.0451    5.8418 C   0  0  0  0  0  0  0  0  0  0  0  0
    2.4632   -0.1363    6.4902 C   0  0  0  0  0  0  0  0  0  0  0  0
  1  7  1  0  0  0  0
  2  6  1  0  0  0  0
  2 15  1  0  0  0  0
  3  5  1  1  0  0  0
  3  4  1  0  0  0  0
  3  1  1  0  0  0  0
  4  6  1  0  0  0  0
  5  8  2  0  0  0  0
  5  9  1  0  0  0  0
  7 10  1  0  0  0  0
  7 13  2  0  0  0  0
  8 11  1  0  0  0  0
  9 12  2  0  0  0  0
 10 16  2  0  0  0  0
 10 17  1  0  0  0  0
 11 14  2  0  0  0  0
 12 14  1  0  0  0  0
 13 18  1  0  0  0  0
 16 19  1  0  0  0  0
 18 19  2  0  0  0  0
M  END
