
 OpenBabel10141417533D

 26 29  0  0  1  0  0  0  0  0999 V2000
   -1.8274    1.2932    0.0250 C   0  0  0  0  0  0  0  0  0  0  0  0
   -3.3538    1.4365   -0.0430 C   0  0  2  0  0  0  0  0  0  0  0  0
   -1.3342   -0.0840    0.3759 C   0  0  0  0  0  0  0  0  0  0  0  0
   -0.9236    2.2758   -0.1182 C   0  0  0  0  0  0  0  0  0  0  0  0
   -3.9471    1.1091   -1.4250 C   0  0  0  0  0  0  0  0  0  0  0  0
   -3.9329    2.7198    0.5943 C   0  0  0  0  0  0  0  0  0  0  0  0
    0.1045   -0.2880    0.6515 C   0  0  0  0  0  0  0  0  0  0  0  0
   -2.0985   -1.0388    0.4476 O   0  0  0  0  0  0  0  0  0  0  0  0
    0.5333    2.0830    0.1153 C   0  0  0  0  0  0  0  0  0  0  0  0
   -1.2790    3.5627   -0.4704 O   0  0  0  0  0  0  0  0  0  0  0  0
   -4.1131    2.3152   -2.3416 C   0  0  0  0  0  0  0  0  0  0  0  0
   -4.3131    3.8654   -0.3485 C   0  0  0  0  0  0  0  0  0  0  0  0
    1.0053    0.7624    0.5352 C   0  0  0  0  0  0  0  0  0  0  0  0
    0.5688   -1.5504    1.0464 C   0  0  0  0  0  0  0  0  0  0  0  0
    1.2863    3.0403   -0.0197 O   0  0  0  0  0  0  0  0  0  0  0  0
   -4.9077    3.4626   -1.7054 C   0  0  2  0  0  0  0  0  0  0  0  0
    2.3639    0.5722    0.8209 C   0  0  0  0  0  0  0  0  0  0  0  0
    1.9241   -1.7455    1.3283 C   0  0  0  0  0  0  0  0  0  0  0  0
   -6.4186    3.2431   -1.7004 C   0  0  0  0  0  0  0  0  0  0  0  0
    2.8206   -0.6836    1.2187 C   0  0  0  0  0  0  0  0  0  0  0  0
   -7.0925    2.5420   -0.6905 C   0  0  0  0  0  0  0  0  0  0  0  0
   -7.1893    3.7911   -2.7425 C   0  0  0  0  0  0  0  0  0  0  0  0
   -8.4865    2.4296   -0.6910 C   0  0  0  0  0  0  0  0  0  0  0  0
   -8.5836    3.6740   -2.7510 C   0  0  0  0  0  0  0  0  0  0  0  0
   -9.2273    3.0016   -1.7179 C   0  0  0  0  0  0  0  0  0  0  0  0
  -10.9428    2.8770   -1.7073 Cl  0  0  0  0  0  0  0  0  0  0  0  0
  1  3  1  0  0  0  0
  1  4  2  0  0  0  0
  2  1  1  6  0  0  0
  2  5  1  0  0  0  0
  2  6  1  0  0  0  0
  3  7  1  0  0  0  0
  3  8  2  0  0  0  0
  4  9  1  0  0  0  0
  4 10  1  0  0  0  0
  5 11  1  0  0  0  0
  6 12  1  0  0  0  0
  7 13  1  0  0  0  0
  7 14  2  0  0  0  0
  9 15  2  0  0  0  0
  9 13  1  0  0  0  0
 11 16  1  0  0  0  0
 12 16  1  0  0  0  0
 13 17  2  0  0  0  0
 14 18  1  0  0  0  0
 16 19  1  1  0  0  0
 17 20  1  0  0  0  0
 18 20  2  0  0  0  0
 19 21  2  0  0  0  0
 19 22  1  0  0  0  0
 21 23  1  0  0  0  0
 22 24  2  0  0  0  0
 23 25  2  0  0  0  0
 24 25  1  0  0  0  0
 25 26  1  0  0  0  0
M  END
