
 OpenBabel10141417513D

 21 23  0  0  1  0  0  0  0  0999 V2000
   -0.3775   -3.6513   -0.9053 O   0  0  0  0  0  0  0  0  0  0  0  0
    0.0538   -3.8121    0.3925 C   0  0  0  0  0  0  0  0  0  0  0  0
    0.9082   -5.0754    0.5450 C   0  0  3  0  0  0  0  0  0  0  0  0
   -0.1983   -3.0340    1.2951 O   0  0  0  0  0  0  0  0  0  0  0  0
    1.0925   -5.3944    2.0428 C   0  0  0  0  0  0  0  0  0  0  0  0
   -0.1339   -5.8298    2.6299 O   0  0  0  0  0  0  0  0  0  0  0  0
    2.2656   -4.9379   -0.1390 C   0  0  0  0  0  0  0  0  0  0  0  0
    3.1620   -3.9256    0.2432 C   0  0  0  0  0  0  0  0  0  0  0  0
    2.6629   -5.8332   -1.1460 C   0  0  0  0  0  0  0  0  0  0  0  0
    3.9258   -5.7241   -1.7409 C   0  0  0  0  0  0  0  0  0  0  0  0
    4.8034   -4.7173   -1.3447 C   0  0  0  0  0  0  0  0  0  0  0  0
    4.4181   -3.8146   -0.3577 C   0  0  0  0  0  0  0  0  0  0  0  0
   -3.6324   -2.8832   -1.4870 C   0  0  2  0  0  0  0  0  0  0  0  0
   -2.5112   -2.4489   -0.5342 C   0  0  0  0  0  0  0  0  0  0  0  0
   -3.3980   -4.2970   -2.0326 C   0  0  0  0  0  0  0  0  0  0  0  0
   -2.6682   -4.0790   -3.3601 C   0  0  0  0  0  0  0  0  0  0  0  0
   -2.4260   -2.5698   -3.4173 C   0  0  2  0  0  0  0  0  0  0  0  0
   -1.1233   -2.1687   -2.6975 C   0  0  0  0  0  0  0  0  0  0  0  0
   -1.1096   -2.4245   -1.1742 C   0  0  2  0  0  0  0  0  0  0  0  0
   -3.6329   -2.1094   -2.7291 N   0  0  0  0  0  0  0  0  0  0  0  0
   -3.7953   -0.6746   -2.5938 C   0  0  0  0  0  0  0  0  0  0  0  0
  2  1  1  0  0  0  0
  2  4  2  0  0  0  0
  3  2  1  0  0  0  0
  3  7  1  0  0  0  0
  3  5  1  0  0  0  0
  6  5  1  0  0  0  0
  7  9  1  0  0  0  0
  8  7  2  0  0  0  0
  8 12  1  0  0  0  0
  9 10  2  0  0  0  0
 10 11  1  0  0  0  0
 11 12  2  0  0  0  0
 13 14  1  1  0  0  0
 13 20  1  0  0  0  0
 15 13  1  0  0  0  0
 16 15  1  0  0  0  0
 17 16  1  1  0  0  0
 17 20  1  0  0  0  0
 18 17  1  0  0  0  0
 18 19  1  0  0  0  0
 19  1  1  6  0  0  0
 19 14  1  0  0  0  0
 20 21  1  0  0  0  0
M  END
