
 OpenBabel10141418183D

 32 32  0  0  1  0  0  0  0  0999 V2000
    0.7030    1.2470   -0.2550 C   0  0  2  0  0  0  0  0  0  0  0  0
    1.4460   -0.0010    0.2330 C   0  0  2  0  0  0  0  0  0  0  0  0
   -0.7420    1.1990    0.2470 C   0  0  1  0  0  0  0  0  0  0  0  0
    0.7020   -1.2480   -0.2550 C   0  0  1  0  0  0  0  0  0  0  0  0
    1.4940   -0.0011    1.6192 O   0  0  0  0  0  0  0  0  0  0  0  0
   -1.3670    0.0000   -0.2160 C   0  0  2  0  0  0  0  0  0  0  0  0
   -0.7509    1.2196    1.6338 O   0  0  0  0  0  0  0  0  0  0  0  0
   -0.7430   -1.1990    0.2470 O   0  0  0  0  0  0  0  0  0  0  0  0
    0.7168   -1.2969   -2.0643 S   0  0  0  0  0  0  0  0  0  0  0  0
   -1.2470   -0.0001   -1.7313 C   0  0  0  0  0  0  0  0  0  0  0  0
   -0.4534   -3.2582   -2.8336 Au  0  0  0  0  0  0  0  0  0  0  0  0
    0.7119    1.2801   -1.6416 O   0  0  0  0  0  0  0  0  0  0  0  0
   -1.8387   -1.1457   -2.2424 O   0  0  0  0  0  0  0  0  0  0  0  0
   -1.1692   -2.3167   -2.2232 C   0  0  0  0  0  0  0  0  0  0  0  0
   -0.0979   -2.4209   -2.8135 O   0  0  0  0  0  0  0  0  0  0  0  0
   -1.7270   -3.4773   -1.4896 C   0  0  0  0  0  0  0  0  0  0  0  0
   -0.5015    0.0573    2.2716 C   0  0  0  0  0  0  0  0  0  0  0  0
    0.6559   -0.0499    3.1909 C   0  0  0  0  0  0  0  0  0  0  0  0
   -1.2334   -0.9115    2.0905 O   0  0  0  0  0  0  0  0  0  0  0  0
    1.8060    1.7169   -2.2988 C   0  0  0  0  0  0  0  0  0  0  0  0
    2.5118    0.8180   -3.2423 C   0  0  0  0  0  0  0  0  0  0  0  0
    2.2169    2.8590   -2.1155 O   0  0  0  0  0  0  0  0  0  0  0  0
       nan       nan       nan P   0  0  0  0  0  0  0  0  0  0  0  0
       nan       nan       nan C   0  0  0  0  0  0  0  0  0  0  0  0
       nan       nan       nan C   0  0  0  0  0  0  0  0  0  0  0  0
       nan       nan       nan C   0  0  0  0  0  0  0  0  0  0  0  0
       nan       nan       nan C   0  0  0  0  0  0  0  0  0  0  0  0
       nan       nan       nan C   0  0  0  0  0  0  0  0  0  0  0  0
       nan       nan       nan C   0  0  0  0  0  0  0  0  0  0  0  0
    2.4095    0.7526    2.2624 C   0  0  0  0  0  0  0  0  0  0  0  0
    1.9700    1.8088    3.2045 C   0  0  0  0  0  0  0  0  0  0  0  0
    3.6067    0.5635    2.0673 O   0  0  0  0  0  0  0  0  0  0  0  0
  1  2  1  0  0  0  0
  1  3  1  0  0  0  0
  1 12  1  6  0  0  0
  2  4  1  0  0  0  0
  2  5  1  1  0  0  0
  3  6  1  0  0  0  0
  3  7  1  1  0  0  0
  4  8  1  0  0  0  0
  4  9  1  6  0  0  0
  5 30  1  0  0  0  0
  6  8  1  0  0  0  0
  6 10  1  6  0  0  0
  7 17  1  0  0  0  0
  9 11  1  0  0  0  0
 10 13  1  0  0  0  0
 11 23  2  0  0  0  0
 12 20  1  0  0  0  0
 13 14  1  0  0  0  0
 14 15  2  0  0  0  0
 14 16  1  0  0  0  0
 17 18  1  0  0  0  0
 17 19  2  0  0  0  0
 20 21  1  0  0  0  0
 20 22  2  0  0  0  0
 23 24  1  0  0  0  0
 23 25  1  0  0  0  0
 23 26  1  0  0  0  0
 24 27  1  0  0  0  0
 25 29  1  0  0  0  0
 26 28  1  0  0  0  0
 30 31  1  0  0  0  0
 30 32  2  0  0  0  0
M  END
