928
 OpenBabel10141417513D

 17 18  0  0  1  0  0  0  0  0999 V2000
    0.8836   -0.8938    0.8230 O   0  0  0  0  0  0  0  0  0  0  0  0
   -0.6421    1.1404   -0.9586 O   0  0  0  0  0  0  0  0  0  0  0  0
    0.9835   -0.0332   -2.6858 O   0  0  0  0  0  0  0  0  0  0  0  0
    2.3156   -2.7255   -2.0194 O   0  0  0  0  0  0  0  0  0  0  0  0
    3.3149    1.7094    0.1722 O   0  0  0  0  0  0  0  0  0  0  0  0
    1.9025    0.9581    1.7863 N   0  0  0  0  0  0  0  0  0  0  0  0
    4.1115    1.5969    2.2587 N   0  0  0  0  0  0  0  0  0  0  0  0
    2.7213    0.8638    3.9710 N   0  0  0  0  0  0  0  0  0  0  0  0
    4.9216    1.4300    4.3796 N   0  0  0  0  0  0  0  0  0  0  0  0
    0.7390    1.0785   -0.5367 C   0  0  2  0  0  0  0  0  0  0  0  0
    1.4364   -0.0121   -1.3321 C   0  0  1  0  0  0  0  0  0  0  0  0
    1.0442   -1.2665   -0.5554 C   0  0  1  0  0  0  0  0  0  0  0  0
    0.8181    0.5501    0.9054 C   0  0  1  0  0  0  0  0  0  0  0  0
    2.0963   -2.3672   -0.6604 C   0  0  0  0  0  0  0  0  0  0  0  0
    3.1102    1.4333    1.3511 C   0  0  0  0  0  0  0  0  0  0  0  0
    1.7828    0.6905    3.1130 C   0  0  0  0  0  0  0  0  0  0  0  0
    3.9093    1.2973    3.4927 C   0  0  0  0  0  0  0  0  0  0  0  0
  1 12  1  0  0  0  0
  1 13  1  0  0  0  0
  4 14  1  0  0  0  0
  5 15  2  0  0  0  0
  6 15  1  0  0  0  0
  6 16  1  0  0  0  0
  7 15  1  0  0  0  0
  7 17  2  0  0  0  0
  8 16  2  0  0  0  0
  8 17  1  0  0  0  0
  9 17  1  0  0  0  0
 10  2  1  6  0  0  0
 10 11  1  0  0  0  0
 10 13  1  0  0  0  0
 11  3  1  6  0  0  0
 11 12  1  0  0  0  0
 12 14  1  1  0  0  0
 13  6  1  6  0  0  0
M  END
