993
 OpenBabel10141417513D

 19 21  0  0  0  0  0  0  0  0999 V2000
    1.3883    0.4135    0.1744 S   0  0  0  0  0  0  0  0  0  0  0  0
    0.0826    1.3952   -2.9051 O   0  5  0  0  0  0  0  0  0  0  0  0
   -1.4756    2.7519   -2.1058 O   0  0  0  0  0  0  0  0  0  0  0  0
    2.2045    3.0415    0.2703 N   0  0  0  0  0  0  0  0  0  0  0  0
    3.0487    0.4943   -2.7390 N   0  0  0  0  0  0  0  0  0  0  0  0
    0.9733    4.1246   -1.2389 N   0  0  0  0  0  0  0  0  0  0  0  0
    3.8790   -0.4698    0.7134 N   0  0  0  0  0  0  0  0  0  0  0  0
    5.1840   -0.0031   -3.0930 N   0  0  0  0  0  0  0  0  0  0  0  0
   -0.3380    2.2810   -2.1339 N   0  3  0  0  0  0  0  0  0  0  0  0
    5.7182   -0.6624   -0.8358 N   0  0  0  0  0  0  0  0  0  0  0  0
    1.3854    2.0887   -0.2906 C   0  0  0  0  0  0  0  0  0  0  0  0
    3.5486    0.0976   -1.5285 C   0  0  0  0  0  0  0  0  0  0  0  0
    3.0442   -0.0278   -0.2524 C   0  0  0  0  0  0  0  0  0  0  0  0
    0.6215    2.7931   -1.1989 C   0  0  0  0  0  0  0  0  0  0  0  0
    1.9187    4.2409   -0.3334 C   0  0  0  0  0  0  0  0  0  0  0  0
    4.8707   -0.2170   -1.7794 C   0  0  0  0  0  0  0  0  0  0  0  0
    3.2151    2.8733    1.2887 C   0  0  0  0  0  0  0  0  0  0  0  0
    4.0682    0.4170   -3.6471 C   0  0  0  0  0  0  0  0  0  0  0  0
    5.1465   -0.7755    0.3676 C   0  0  0  0  0  0  0  0  0  0  0  0
  1 11  1  0  0  0  0
  1 13  1  0  0  0  0
  2  9  1  0  0  0  0
  3  9  2  0  0  0  0
  4 11  1  0  0  0  0
  4 15  1  0  0  0  0
  4 17  1  0  0  0  0
  5 12  1  0  0  0  0
  5 18  1  0  0  0  0
  6 14  1  0  0  0  0
  6 15  2  0  0  0  0
  7 13  2  0  0  0  0
  7 19  1  0  0  0  0
  8 16  1  0  0  0  0
  8 18  2  0  0  0  0
  9 14  1  0  0  0  0
 10 16  1  0  0  0  0
 10 19  2  0  0  0  0
 11 14  2  0  0  0  0
 12 13  1  0  0  0  0
 12 16  2  0  0  0  0
M  CHG  2   2  -1   9   1
M  END
