
 OpenBabel10141417503D

 42 47  0  0  0  0  0  0  0  0999 V2000
    0.9052   -1.1178   -0.5234 C   0  0  0  0  0  0  0  0  0  0  0  0
    1.6861   -1.5055   -1.6000 O   0  0  0  0  0  0  0  0  0  0  0  0
    1.3797   -0.5304   -2.5349 C   0  0  0  0  0  0  0  0  0  0  0  0
    0.4533    0.4016   -2.0942 O   0  0  0  0  0  0  0  0  0  0  0  0
    0.2115   -0.0348   -0.8061 C   0  0  0  0  0  0  0  0  0  0  0  0
    1.8935   -0.4842   -3.6458 O   0  0  0  0  0  0  0  0  0  0  0  0
   -0.7136    0.7673    0.0318 C   0  0  0  0  0  0  0  0  0  0  0  0
    0.9333   -1.9269    0.7339 C   0  0  0  0  0  0  0  0  0  0  0  0
    1.8621   -3.0161    0.6398 O   0  0  0  0  0  0  0  0  0  0  0  0
    1.4064   -4.1509    0.0320 C   0  0  0  0  0  0  0  0  0  0  0  0
    0.2747   -4.3391   -0.3580 O   0  0  0  0  0  0  0  0  0  0  0  0
    2.5340   -5.1047   -0.1065 C   0  0  0  0  0  0  0  0  0  0  0  0
    2.3982   -6.5125   -0.2312 C   0  0  0  0  0  0  0  0  0  0  0  0
    3.5440   -7.2973   -0.4370 C   0  0  0  0  0  0  0  0  0  0  0  0
    3.8433   -4.5629   -0.1999 C   0  0  0  0  0  0  0  0  0  0  0  0
    4.9703   -5.3542   -0.3686 C   0  0  0  0  0  0  0  0  0  0  0  0
    4.8266   -6.7279   -0.4881 C   0  0  0  0  0  0  0  0  0  0  0  0
    3.2454   -8.6158   -0.5693 N   0  0  0  0  0  0  0  0  0  0  0  0
    1.9470   -8.7008   -0.4304 C   0  0  0  0  0  0  0  0  0  0  0  0
    1.3733   -7.4633   -0.1772 N   0  0  0  0  0  0  0  0  0  0  0  0
    0.0108   -7.2964    0.3339 C   0  0  0  0  0  0  0  0  0  0  0  0
   -1.1287   -7.2381   -0.6666 C   0  0  0  0  0  0  0  0  0  0  0  0
    1.2811   -9.8582   -0.5210 O   0  0  0  0  0  0  0  0  0  0  0  0
    2.0124  -10.8410   -1.2808 C   0  0  0  0  0  0  0  0  0  0  0  0
    1.2705  -12.1626   -1.3749 C   0  0  0  0  0  0  0  0  0  0  0  0
   -2.4364   -7.0875   -0.1793 C   0  0  0  0  0  0  0  0  0  0  0  0
   -3.5533   -7.1015   -1.0399 C   0  0  0  0  0  0  0  0  0  0  0  0
   -0.9871   -7.3394   -2.0494 C   0  0  0  0  0  0  0  0  0  0  0  0
   -2.1118   -7.3139   -2.9083 C   0  0  0  0  0  0  0  0  0  0  0  0
   -3.4346   -7.2409   -2.4392 C   0  0  0  0  0  0  0  0  0  0  0  0
   -4.6511   -7.2541   -3.3369 C   0  0  0  0  0  0  0  0  0  0  0  0
   -4.7893   -7.9229   -4.5872 C   0  0  0  0  0  0  0  0  0  0  0  0
   -5.9966   -7.8198   -5.3314 C   0  0  0  0  0  0  0  0  0  0  0  0
   -5.7920   -6.5093   -2.9218 C   0  0  0  0  0  0  0  0  0  0  0  0
   -6.9755   -6.4185   -3.6685 C   0  0  0  0  0  0  0  0  0  0  0  0
   -7.0752   -7.0676   -4.8826 C   0  0  0  0  0  0  0  0  0  0  0  0
   -3.7709   -8.7979   -5.2149 C   0  0  0  0  0  0  0  0  0  0  0  0
   -3.6706   -8.8622   -6.5477 N   0  0  0  0  0  0  0  0  0  0  0  0
   -2.6890   -9.7454   -6.8405 C   0  0  0  0  0  0  0  0  0  0  0  0
   -2.1766  -10.2030   -5.6483 O   0  0  0  0  0  0  0  0  0  0  0  0
   -2.9302   -9.5754   -4.6061 N   0  0  0  0  0  0  0  0  0  0  0  0
   -2.3352  -10.0733   -7.9517 O   0  0  0  0  0  0  0  0  0  0  0  0
  1  2  1  0  0  0  0
  1  8  1  0  0  0  0
  2  3  1  0  0  0  0
  3  4  1  0  0  0  0
  3  6  2  0  0  0  0
  4  5  1  0  0  0  0
  5  1  2  0  0  0  0
  5  7  1  0  0  0  0
  8  9  1  0  0  0  0
  9 10  1  0  0  0  0
 10 11  2  0  0  0  0
 10 12  1  0  0  0  0
 12 13  1  0  0  0  0
 12 15  2  0  0  0  0
 13 14  2  0  0  0  0
 14 18  1  0  0  0  0
 15 16  1  0  0  0  0
 16 17  2  0  0  0  0
 17 14  1  0  0  0  0
 18 19  2  0  0  0  0
 19 20  1  0  0  0  0
 19 23  1  0  0  0  0
 20 13  1  0  0  0  0
 20 21  1  0  0  0  0
 21 22  1  0  0  0  0
 22 26  1  0  0  0  0
 22 28  2  0  0  0  0
 23 24  1  0  0  0  0
 24 25  1  0  0  0  0
 26 27  2  0  0  0  0
 28 29  1  0  0  0  0
 29 30  2  0  0  0  0
 30 27  1  0  0  0  0
 30 31  1  0  0  0  0
 31 32  1  0  0  0  0
 31 34  2  0  0  0  0
 32 33  2  0  0  0  0
 32 37  1  0  0  0  0
 34 35  1  0  0  0  0
 35 36  2  0  0  0  0
 36 33  1  0  0  0  0
 37 38  1  0  0  0  0
 38 39  1  0  0  0  0
 39 40  1  0  0  0  0
 39 42  2  0  0  0  0
 40 41  1  0  0  0  0
 41 37  2  0  0  0  0
M  END
