
 OpenBabel10141418023D

 52 54  0  0  0  0  0  0  0  0999 V2000
    6.7842   -3.3057    2.6713 N   0  0  0  0  0  0  0  0  0  0  0  0
    6.4073   -2.4998    1.4895 C   0  0  0  0  0  0  0  0  0  0  0  0
    5.6341   -3.8208    3.4894 C   0  0  1  0  0  0  0  0  0  0  0  0
    7.4195   -1.3699    1.1560 C   0  0  1  0  0  0  0  0  0  0  0  0
    7.3887   -0.2351    2.2732 C   0  0  0  0  0  0  0  0  0  0  0  0
    8.5389    0.8001    2.4476 C   0  0  2  0  0  0  0  0  0  0  0  0
    8.3843    2.0574    3.3800 C   0  0  1  0  0  0  0  0  0  0  0  0
    8.0573    1.4684    4.7742 C   0  0  2  0  0  0  0  0  0  0  0  0
    6.5964    1.6171    5.3867 C   0  0  1  0  0  0  0  0  0  0  0  0
    6.2135    0.1835    5.9259 C   0  0  2  0  0  0  0  0  0  0  0  0
    4.8397   -0.4248    6.0112 C   0  0  0  0  0  0  0  0  0  0  0  0
    5.0252   -1.6474    6.5134 O   0  0  0  0  0  0  0  0  0  0  0  0
    4.2085   -2.8294    6.4849 C   0  0  1  0  0  0  0  0  0  0  0  0
    5.1565   -4.0648    6.1622 C   0  0  2  0  0  0  0  0  0  0  0  0
    6.1548   -3.8973    4.9644 C   0  0  2  0  0  0  0  0  0  0  0  0
    7.6620   -4.4532    2.3379 C   0  0  0  0  0  0  0  0  0  0  0  0
    4.3271   -3.0502    3.3232 C   0  0  0  0  0  0  0  0  0  0  0  0
    7.1006   -2.8406    5.1920 O   0  0  0  0  0  0  0  0  0  0  0  0
    4.3853   -5.2533    5.9113 O   0  0  0  0  0  0  0  0  0  0  0  0
    7.1390   -0.3798    7.0330 C   0  0  0  0  0  0  0  0  0  0  0  0
    8.5389    1.4458    1.2160 O   0  0  0  0  0  0  0  0  0  0  0  0
    8.6999   -2.1086    0.8257 C   0  0  0  0  0  0  0  0  0  0  0  0
    9.8183    0.0114    2.9001 C   0  0  0  0  0  0  0  0  0  0  0  0
    6.0572   -4.3808    7.3884 C   0  0  0  0  0  0  0  0  0  0  0  0
    3.5438   -2.8743    7.8702 C   0  0  0  0  0  0  0  0  0  0  0  0
    6.3925    2.7684    6.2523 O   0  0  0  0  0  0  0  0  0  0  0  0
    9.6470    2.8307    3.4267 O   0  0  0  0  0  0  0  0  0  0  0  0
    3.7396   -0.0078    5.4538 O   0  0  0  0  0  0  0  0  0  0  0  0
    2.6243   -4.0576    8.0862 C   0  0  0  0  0  0  0  0  0  0  0  0
    7.0800    2.9150    7.4998 C   0  0  1  0  0  0  0  0  0  0  0  0
   10.9860    2.3884    1.2053 C   0  0  1  0  0  0  0  0  0  0  0  0
   10.4095    3.3805    2.3083 C   0  0  1  0  0  0  0  0  0  0  0  0
    9.8200    4.5836    1.8149 O   0  0  0  0  0  0  0  0  0  0  0  0
   10.1030    4.8306    0.4365 C   0  0  1  0  0  0  0  0  0  0  0  0
    9.4780    3.7025   -0.3816 C   0  0  0  0  0  0  0  0  0  0  0  0
   10.3765    2.4508   -0.2728 C   0  0  2  0  0  0  0  0  0  0  0  0
    6.9258    4.2865    8.1667 C   0  0  0  0  0  0  0  0  0  0  0  0
    6.7531    1.8589    8.3714 O   0  0  0  0  0  0  0  0  0  0  0  0
    6.6747    2.0901    9.7659 C   0  0  2  0  0  0  0  0  0  0  0  0
    5.4781    3.0224    9.8904 C   0  0  1  0  0  0  0  0  0  0  0  0
    5.7489    4.3857    9.1750 C   0  0  1  0  0  0  0  0  0  0  0  0
   12.4294    2.5183    1.0704 O   0  0  0  0  0  0  0  0  0  0  0  0
    7.9793    2.4842   10.4616 C   0  0  0  0  0  0  0  0  0  0  0  0
    6.1768    5.4655   10.1847 C   0  0  0  0  0  0  0  0  0  0  0  0
    9.4811    6.1684    0.0753 C   0  0  0  0  0  0  0  0  0  0  0  0
    9.7574    1.2116   -0.8512 N   0  0  0  0  0  0  0  0  0  0  0  0
    4.5969    4.8589    8.4485 O   0  0  0  0  0  0  0  0  0  0  0  0
    4.3840    2.3130    9.2525 O   0  0  0  0  0  0  0  0  0  0  0  0
    3.4407    5.1731    9.2234 C   0  0  0  0  0  0  0  0  0  0  0  0
   10.5342    0.0060   -0.7265 C   0  0  0  0  0  0  0  0  0  0  0  0
    9.2499    1.2324   -2.2084 C   0  0  0  0  0  0  0  0  0  0  0  0
    9.2047    1.7743    5.6858 C   0  0  0  0  0  0  0  0  0  0  0  0
  1  2  1  0  0  0  0
  1  3  1  0  0  0  0
  1 16  1  0  0  0  0
  2  4  1  0  0  0  0
  3 17  1  1  0  0  0
  4  5  1  0  0  0  0
  4 22  1  1  0  0  0
  5  6  1  0  0  0  0
  6  7  1  0  0  0  0
  6 23  1  1  0  0  0
  6 21  1  0  0  0  0
  7  8  1  0  0  0  0
  7 27  1  1  0  0  0
  8  9  1  0  0  0  0
  8 52  1  1  0  0  0
  9 10  1  0  0  0  0
  9 26  1  1  0  0  0
 10 11  1  0  0  0  0
 10 20  1  1  0  0  0
 11 12  1  0  0  0  0
 11 28  2  0  0  0  0
 12 13  1  0  0  0  0
 13 14  1  0  0  0  0
 13 25  1  1  0  0  0
 14 15  1  0  0  0  0
 14 24  1  1  0  0  0
 14 19  1  0  0  0  0
 15  3  1  0  0  0  0
 15 18  1  1  0  0  0
 25 29  1  0  0  0  0
 30 38  1  0  0  0  0
 30 26  1  6  0  0  0
 31 32  1  0  0  0  0
 31 36  1  0  0  0  0
 31 42  1  6  0  0  0
 32 33  1  0  0  0  0
 32 27  1  6  0  0  0
 33 34  1  0  0  0  0
 34 35  1  0  0  0  0
 34 45  1  6  0  0  0
 35 36  1  0  0  0  0
 36 46  1  1  0  0  0
 37 30  1  0  0  0  0
 37 41  1  0  0  0  0
 38 39  1  0  0  0  0
 39 40  1  0  0  0  0
 39 43  1  6  0  0  0
 40 41  1  0  0  0  0
 40 48  1  6  0  0  0
 41 44  1  1  0  0  0
 41 47  1  0  0  0  0
 46 50  1  0  0  0  0
 46 51  1  0  0  0  0
 47 49  1  0  0  0  0
M  END
