
 OpenBabel10141417483D

 32 35  0  0  0  0  0  0  0  0999 V2000
    5.8063    4.0076   -5.5422 C   0  0  0  0  0  0  0  0  0  0  0  0
    5.0612    3.1875   -6.3845 C   0  0  0  0  0  0  0  0  0  0  0  0
    3.7293    2.8828   -6.0773 C   0  0  0  0  0  0  0  0  0  0  0  0
    3.1138    3.3959   -4.9243 C   0  0  0  0  0  0  0  0  0  0  0  0
    3.8719    4.2536   -4.1039 C   0  0  0  0  0  0  0  0  0  0  0  0
    5.2095    4.5452   -4.4046 C   0  0  0  0  0  0  0  0  0  0  0  0
   -0.3845    0.0656   -6.1329 C   0  0  2  0  0  0  0  0  0  0  0  0
   -1.6335    0.0299   -7.0577 C   0  0  0  0  0  0  0  0  0  0  0  0
   -2.2062   -0.9856   -6.3443 N   0  0  0  0  0  0  0  0  0  0  0  0
   -1.2696   -0.8235   -5.2069 C   0  0  2  0  0  0  0  0  0  0  0  0
   -3.6360   -0.9689   -6.0354 C   0  0  2  0  0  0  0  0  0  0  0  0
   -3.8391   -0.0048   -4.8389 C   0  0  0  0  0  0  0  0  0  0  0  0
   -2.2424    0.0151   -3.8982 S   0  0  0  0  0  0  0  0  0  0  0  0
   -4.9765   -0.3402   -3.8665 C   0  0  0  0  0  0  0  0  0  0  0  0
   -4.0949    1.4309   -5.3402 C   0  0  0  0  0  0  0  0  0  0  0  0
   -4.0688   -2.4262   -5.8208 C   0  0  0  0  0  0  0  0  0  0  0  0
   -4.5051   -3.0273   -6.9598 O   0  0  0  0  0  0  0  0  0  0  0  0
   -3.9598   -3.0573   -4.7807 O   0  0  0  0  0  0  0  0  0  0  0  0
    0.0626    1.4246   -5.6565 N   0  0  0  0  0  0  0  0  0  0  0  0
    1.2271    1.6059   -4.9241 C   0  0  0  0  0  0  0  0  0  0  0  0
    1.8929    0.6312   -4.5671 O   0  0  0  0  0  0  0  0  0  0  0  0
    1.6510    3.0888   -4.5781 C   0  0  2  0  0  0  0  0  0  0  0  0
    0.7880    4.1140   -5.1676 N   0  0  0  0  0  0  0  0  0  0  0  0
   -0.2222    4.7266   -4.4703 C   0  0  0  0  0  0  0  0  0  0  0  0
   -0.5382    4.3980   -3.3301 O   0  0  0  0  0  0  0  0  0  0  0  0
   -2.1003    0.7017   -7.9572 O   0  0  0  0  0  0  0  0  0  0  0  0
   -1.5789    7.1599   -6.7620 N   0  0  0  0  0  0  0  0  0  0  0  0
   -0.6513    6.1797   -6.4665 C   0  0  0  0  0  0  0  0  0  0  0  0
   -0.8932    5.7182   -5.1662 N   0  0  0  0  0  0  0  0  0  0  0  0
   -2.0149    6.4297   -4.5850 C   0  0  0  0  0  0  0  0  0  0  0  0
   -2.4790    7.3916   -5.6706 C   0  0  0  0  0  0  0  0  0  0  0  0
    0.2256    5.8081   -7.2301 O   0  0  0  0  0  0  0  0  0  0  0  0
  1  2  2  0  0  0  0
  2  3  1  0  0  0  0
  4  5  1  0  0  0  0
  4  3  2  0  0  0  0
  5  6  2  0  0  0  0
  6  1  1  0  0  0  0
  7  8  1  0  0  0  0
  7 19  1  1  0  0  0
  8  9  1  0  0  0  0
  8 26  2  0  0  0  0
  9 11  1  0  0  0  0
 10  9  1  6  0  0  0
 10  7  1  0  0  0  0
 10 13  1  0  0  0  0
 11 12  1  0  0  0  0
 11 16  1  1  0  0  0
 12 13  1  0  0  0  0
 12 14  1  0  0  0  0
 12 15  1  0  0  0  0
 16 17  1  0  0  0  0
 16 18  2  0  0  0  0
 19 20  1  0  0  0  0
 20 21  2  0  0  0  0
 22 23  1  6  0  0  0
 22 20  1  0  0  0  0
 22  4  1  0  0  0  0
 23 24  1  0  0  0  0
 24 29  1  0  0  0  0
 24 25  2  0  0  0  0
 27 28  1  0  0  0  0
 27 31  1  0  0  0  0
 28 29  1  0  0  0  0
 28 32  2  0  0  0  0
 29 30  1  0  0  0  0
 30 31  1  0  0  0  0
M  END
