
 OpenBabel10141417503D

 28 29  0  0  0  0  0  0  0  0999 V2000
   -0.1907    1.3731   -0.0090 C   0  0  1  0  0  0  0  0  0  0  0  0
    0.0152    2.2187    1.2926 C   0  0  1  0  0  0  0  0  0  0  0  0
   -1.3439    1.8543    1.7010 N   0  0  0  0  0  0  0  0  0  0  0  0
   -1.6897    1.3191    0.4787 C   0  0  0  0  0  0  0  0  0  0  0  0
   -2.3510    2.4559    2.8588 S   0  0  0  0  0  0  0  0  0  0  0  0
   -2.6149    1.2805    3.6815 O   0  5  0  0  0  0  0  0  0  0  0  0
   -1.5368    3.4774    3.5089 O   0  0  0  0  0  0  0  0  0  0  0  0
   -3.4944    2.9836    2.1246 O   0  0  0  0  0  0  0  0  0  0  0  0
   -2.7701    0.9538    0.0483 O   0  0  0  0  0  0  0  0  0  0  0  0
    1.0641    1.7070    2.2571 C   0  0  0  0  0  0  0  0  0  0  0  0
    0.0683    2.0764   -1.2967 N   0  0  0  0  0  0  0  0  0  0  0  0
    1.0661    3.0269   -1.4220 C   0  0  0  0  0  0  0  0  0  0  0  0
    1.7791    3.3847   -0.4927 O   0  0  0  0  0  0  0  0  0  0  0  0
    1.3080    3.5917   -2.8170 C   0  0  0  0  0  0  0  0  0  0  0  0
    1.6573    4.8285   -3.0432 N   0  0  0  0  0  0  0  0  0  0  0  0
    1.2860    1.7820   -6.3413 S   0  0  0  0  0  0  0  0  0  0  0  0
    1.8347    2.9054   -5.1766 C   0  0  0  0  0  0  0  0  0  0  0  0
    1.1306    2.7512   -3.9974 C   0  0  0  0  0  0  0  0  0  0  0  0
    0.1632    1.7413   -4.0299 N   0  0  0  0  0  0  0  0  0  0  0  0
    0.1385    1.1799   -5.2160 C   0  0  0  0  0  0  0  0  0  0  0  0
    1.6107    5.6463   -1.9007 O   0  0  0  0  0  0  0  0  0  0  0  0
    1.3221    7.0084   -2.2724 C   0  0  0  0  0  0  0  0  0  0  0  0
    2.6077    7.7757   -2.6393 C   0  0  0  0  0  0  0  0  0  0  0  0
    2.6442    8.7198   -3.4192 O   0  0  0  0  0  0  0  0  0  0  0  0
    3.7269    7.3545   -1.9990 O   0  0  0  0  0  0  0  0  0  0  0  0
    0.3268    7.0832   -3.4453 C   0  0  0  0  0  0  0  0  0  0  0  0
    0.6529    7.6642   -1.0560 C   0  0  0  0  0  0  0  0  0  0  0  0
   -0.7165    0.2058   -5.5597 N   0  3  0  0  0  0  0  0  0  0  0  0
  1  2  1  0  0  0  0
  1  4  1  0  0  0  0
  1 11  1  6  0  0  0
  2  3  1  0  0  0  0
  2 10  1  1  0  0  0
  3  5  1  0  0  0  0
  4  3  1  0  0  0  0
  4  9  2  0  0  0  0
  5  6  1  0  0  0  0
  5  7  2  0  0  0  0
  5  8  2  0  0  0  0
 11 12  1  0  0  0  0
 12 13  2  0  0  0  0
 12 14  1  0  0  0  0
 14 18  1  0  0  0  0
 14 15  2  0  0  0  0
 15 21  1  0  0  0  0
 16 17  1  0  0  0  0
 16 20  1  0  0  0  0
 17 18  2  0  0  0  0
 18 19  1  0  0  0  0
 19 20  2  0  0  0  0
 20 28  1  0  0  0  0
 21 22  1  0  0  0  0
 22 23  1  0  0  0  0
 22 26  1  0  0  0  0
 22 27  1  0  0  0  0
 23 24  2  0  0  0  0
 23 25  1  0  0  0  0
M  CHG  2   6  -1  28   1
M  END
