
 OpenBabel10141417543D

100103  0  0  1  0  0  0  0  0999 V2000
   13.3461  -17.7303    0.8203 S   0  0  0  0  0  0  0  0  0  0  0  0
   12.5303  -19.3604    1.5563 C   0  0  0  0  0  0  0  0  0  0  0  0
   11.6133  -18.9947    2.6806 C   0  0  2  0  0  0  0  0  0  0  0  0
   12.3828  -17.4725    3.2252 N   0  0  0  0  0  0  0  0  0  0  0  0
   12.9900  -16.7035    2.3005 C   0  0  0  0  0  0  0  0  0  0  0  0
   13.3484  -14.8098    2.1908 C   0  0  1  0  0  0  0  0  0  0  0  0
   12.2315  -13.4847    2.0623 N   0  0  0  0  0  0  0  0  0  0  0  0
   10.7818  -20.2459    3.7110 C   0  0  0  0  0  0  0  0  0  0  0  0
    9.3646  -20.0967    4.1714 N   0  0  0  0  0  0  0  0  0  0  0  0
    8.3801  -18.9966    3.9595 C   0  0  2  0  0  0  0  0  0  0  0  0
    8.1031  -19.2107    2.4717 C   0  0  0  0  0  0  0  0  0  0  0  0
    8.3836  -18.4032    1.4341 N   0  0  0  0  0  0  0  0  0  0  0  0
    8.8671  -17.0706    1.0666 C   0  0  1  0  0  0  0  0  0  0  0  0
    7.7755  -15.9564    1.5651 C   0  0  0  0  0  0  0  0  0  0  0  0
    7.1167  -16.2791    2.8667 N   0  0  0  0  0  0  0  0  0  0  0  0
    6.7881  -15.2900    4.2103 C   0  0  2  0  0  0  0  0  0  0  0  0
    5.6995  -14.6467    3.5365 C   0  0  0  0  0  0  0  0  0  0  0  0
    5.4453  -13.4040    3.9663 N   0  0  0  0  0  0  0  0  0  0  0  0
    6.1889  -12.3363    4.8226 C   0  0  2  0  0  0  0  0  0  0  0  0
    7.3387  -12.7101    6.1323 C   0  0  0  0  0  0  0  0  0  0  0  0
    8.6198  -13.1805    5.9173 N   0  0  0  0  0  0  0  0  0  0  0  0
    9.8406  -13.6566    6.9536 C   0  0  1  0  0  0  0  0  0  0  0  0
   10.1785  -15.1990    7.8753 C   0  0  0  0  0  0  0  0  0  0  0  0
    9.6615  -16.4484    7.5229 N   0  0  0  0  0  0  0  0  0  0  0  0
   14.0474  -14.0673    3.3841 C   0  0  1  0  0  0  0  0  0  0  0  0
   14.5854  -12.6714    2.8597 C   0  0  0  0  0  0  0  0  0  0  0  0
   13.1054  -13.8355    4.6688 C   0  0  0  0  0  0  0  0  0  0  0  0
   13.6984  -13.1670    5.9277 C   0  0  0  0  0  0  0  0  0  0  0  0
   11.4008  -21.2126    4.1797 O   0  0  0  0  0  0  0  0  0  0  0  0
    7.6436  -20.3146    2.1323 O   0  0  0  0  0  0  0  0  0  0  0  0
    7.9020  -14.8197    1.1046 O   0  0  0  0  0  0  0  0  0  0  0  0
    4.9987  -15.2206    2.7044 O   0  0  0  0  0  0  0  0  0  0  0  0
    6.9727  -12.6240    7.3055 O   0  0  0  0  0  0  0  0  0  0  0  0
   11.0514  -15.1995    8.7474 O   0  0  0  0  0  0  0  0  0  0  0  0
    8.5063  -17.6621    4.8144 C   0  0  0  0  0  0  0  0  0  0  0  0
    9.4882  -16.4603    4.5183 C   0  0  0  0  0  0  0  0  0  0  0  0
    9.3882  -15.6599    3.3808 C   0  0  0  0  0  0  0  0  0  0  0  0
    9.7866  -15.3125    5.2929 C   0  0  0  0  0  0  0  0  0  0  0  0
   10.3363  -16.7917    1.3254 C   0  0  0  0  0  0  0  0  0  0  0  0
   10.7861  -15.3894    1.1984 C   0  0  0  0  0  0  0  0  0  0  0  0
   11.1738  -14.8078   -0.1857 C   0  0  0  0  0  0  0  0  0  0  0  0
   11.0080  -13.4100   -0.1287 O   0  0  0  0  0  0  0  0  0  0  0  0
   11.5283  -15.3278   -1.0627 O   0  0  0  0  0  0  0  0  0  0  0  0
    6.2976  -15.6811    5.8542 C   0  0  2  0  0  0  0  0  0  0  0  0
    5.5554  -16.9947    5.9410 C   0  0  0  0  0  0  0  0  0  0  0  0
    5.5303  -14.7048    6.8586 C   0  0  0  0  0  0  0  0  0  0  0  0
    4.1344  -16.9446    5.4375 C   0  0  0  0  0  0  0  0  0  0  0  0
    4.9450  -11.5181    5.5278 C   0  0  0  0  0  0  0  0  0  0  0  0
   10.3313  -12.3911    7.5623 C   0  0  0  0  0  0  0  0  0  0  0  0
    9.7048  -17.7844    8.1491 C   0  0  2  0  0  0  0  0  0  0  0  0
    8.1290  -18.0715    8.4602 C   0  0  0  0  0  0  0  0  0  0  0  0
    7.5866  -17.2437    9.2072 O   0  0  0  0  0  0  0  0  0  0  0  0
    7.2962  -19.0172    7.8387 N   0  0  0  0  0  0  0  0  0  0  0  0
    5.7808  -19.3015    8.2449 C   0  0  1  0  0  0  0  0  0  0  0  0
    4.6954  -19.6568    6.9895 C   0  0  0  0  0  0  0  0  0  0  0  0
    3.2703  -19.6699    7.1228 N   0  0  0  0  0  0  0  0  0  0  0  0
    5.1859  -19.8953    5.8774 O   0  0  0  0  0  0  0  0  0  0  0  0
    2.2115  -20.0813    5.9299 C   0  0  2  0  0  0  0  0  0  0  0  0
    0.6796  -19.2535    5.9465 C   0  0  0  0  0  0  0  0  0  0  0  0
    0.2542  -18.4976    4.8129 N   0  0  0  0  0  0  0  0  0  0  0  0
   -0.0675  -19.3344    6.9253 O   0  0  0  0  0  0  0  0  0  0  0  0
   -1.0447  -17.6336    4.7330 C   0  0  1  0  0  0  0  0  0  0  0  0
   -0.9037  -16.1110    5.2216 C   0  0  0  0  0  0  0  0  0  0  0  0
   -0.7990  -15.0647    4.2995 N   0  0  0  0  0  0  0  0  0  0  0  0
   -0.8531  -15.8959    6.4328 O   0  0  0  0  0  0  0  0  0  0  0  0
    3.8803  -10.5944    4.8179 C   0  0  0  0  0  0  0  0  0  0  0  0
    9.3622  -12.0024    8.6213 C   0  0  0  0  0  0  0  0  0  0  0  0
    9.1113  -13.1512    9.6023 C   0  0  0  0  0  0  0  0  0  0  0  0
    8.0814  -12.7945   10.5467 N   0  0  0  0  0  0  0  0  0  0  0  0
   10.7459  -18.8319    7.6169 C   0  0  1  0  0  0  0  0  0  0  0  0
   10.5815  -20.1863    8.2476 C   0  0  0  0  0  0  0  0  0  0  0  0
   10.6609  -19.3041    6.2352 C   0  0  0  0  0  0  0  0  0  0  0  0
   11.1209  -18.2958    5.3247 C   0  0  0  0  0  0  0  0  0  0  0  0
    5.7500  -20.4519    9.2797 C   0  0  0  0  0  0  0  0  0  0  0  0
    6.3537  -21.7705    8.8101 C   0  0  0  0  0  0  0  0  0  0  0  0
    5.6617  -22.8115    8.1804 C   0  0  0  0  0  0  0  0  0  0  0  0
    6.3369  -23.9958    7.8030 C   0  0  0  0  0  0  0  0  0  0  0  0
    7.7034  -24.1506    8.0263 C   0  0  0  0  0  0  0  0  0  0  0  0
    8.3887  -23.1351    8.6681 C   0  0  0  0  0  0  0  0  0  0  0  0
    7.7133  -21.9801    9.0663 C   0  0  0  0  0  0  0  0  0  0  0  0
    1.8932  -21.6759    5.8467 C   0  0  0  0  0  0  0  0  0  0  0  0
    2.8392  -22.8216    5.3697 C   0  0  0  0  0  0  0  0  0  0  0  0
    2.2907  -24.1117    5.1825 N   0  0  0  0  0  0  0  0  0  0  0  0
    3.2870  -24.9510    4.9716 C   0  0  0  0  0  0  0  0  0  0  0  0
    4.4749  -24.2829    4.9621 N   0  0  0  0  0  0  0  0  0  0  0  0
    4.2029  -22.9461    5.1892 C   0  0  0  0  0  0  0  0  0  0  0  0
   -1.1036  -13.5801    4.5170 C   0  0  2  0  0  0  0  0  0  0  0  0
   -0.4995  -12.7356    3.3386 C   0  0  0  0  0  0  0  0  0  0  0  0
    0.3693  -11.6876    3.3568 N   0  0  0  0  0  0  0  0  0  0  0  0
   -0.8478  -13.0775    2.1907 O   0  0  0  0  0  0  0  0  0  0  0  0
   -1.0366  -12.9898    5.9141 C   0  0  0  0  0  0  0  0  0  0  0  0
   -2.0648  -13.4997    6.9213 C   0  0  0  0  0  0  0  0  0  0  0  0
   -2.0277  -13.1473    8.1002 O   0  0  0  0  0  0  0  0  0  0  0  0
   -3.0914  -14.2919    6.4899 N   0  0  0  0  0  0  0  0  0  0  0  0
    2.7059  -11.4096    4.2138 C   0  0  0  0  0  0  0  0  0  0  0  0
   -1.8037  -17.7741    3.3843 C   0  0  0  0  0  0  0  0  0  0  0  0
    1.2318  -10.9407    4.3131 C   0  0  0  0  0  0  0  0  0  0  0  0
   -3.1278  -17.0213    3.3311 C   0  0  0  0  0  0  0  0  0  0  0  0
   -3.4035  -15.9710    3.8864 O   0  0  0  0  0  0  0  0  0  0  0  0
   -4.0293  -17.5992    2.5122 O   0  0  0  0  0  0  0  0  0  0  0  0
  1  2  1  0  0  0  0
  1  5  1  0  0  0  0
  3  2  1  0  0  0  0
  3  4  1  0  0  0  0
  3  8  1  1  0  0  0
  4  5  2  0  0  0  0
  6  5  1  1  0  0  0
  6  7  1  0  0  0  0
  6 25  1  0  0  0  0
  8  9  1  0  0  0  0
  8 29  2  0  0  0  0
 10 35  1  6  0  0  0
 10 11  1  0  0  0  0
 10  9  1  0  0  0  0
 11 12  1  0  0  0  0
 11 30  2  0  0  0  0
 13 12  1  1  0  0  0
 13 14  1  0  0  0  0
 13 39  1  0  0  0  0
 14 15  1  0  0  0  0
 14 31  2  0  0  0  0
 16 17  1  1  0  0  0
 16 15  1  0  0  0  0
 17 18  1  0  0  0  0
 17 32  2  0  0  0  0
 19 18  1  1  0  0  0
 19 20  1  0  0  0  0
 19 48  1  0  0  0  0
 20 21  1  0  0  0  0
 20 33  2  0  0  0  0
 21 22  1  0  0  0  0
 22 23  1  0  0  0  0
 22 49  1  6  0  0  0
 23 24  1  0  0  0  0
 23 34  2  0  0  0  0
 25 26  1  6  0  0  0
 25 27  1  0  0  0  0
 27 28  1  0  0  0  0
 35 36  1  0  0  0  0
 36 37  1  0  0  0  0
 36 38  1  0  0  0  0
 39 40  1  0  0  0  0
 40 41  1  0  0  0  0
 41 42  1  0  0  0  0
 41 43  2  0  0  0  0
 44 46  1  6  0  0  0
 44 45  1  0  0  0  0
 44 16  1  0  0  0  0
 45 47  1  0  0  0  0
 48 66  1  0  0  0  0
 49 67  1  0  0  0  0
 50 24  1  1  0  0  0
 50 51  1  0  0  0  0
 50 70  1  0  0  0  0
 51 52  2  0  0  0  0
 51 53  1  0  0  0  0
 53 54  1  0  0  0  0
 54 55  1  0  0  0  0
 54 74  1  1  0  0  0
 55 56  1  0  0  0  0
 55 57  2  0  0  0  0
 56 58  1  0  0  0  0
 58 59  1  0  0  0  0
 58 81  1  1  0  0  0
 59 60  1  0  0  0  0
 59 61  2  0  0  0  0
 60 62  1  0  0  0  0
 62 63  1  0  0  0  0
 62 96  1  6  0  0  0
 63 64  1  0  0  0  0
 63 65  2  0  0  0  0
 64 87  1  0  0  0  0
 66 95  1  0  0  0  0
 67 68  1  0  0  0  0
 68 69  1  0  0  0  0
 70 71  1  1  0  0  0
 70 72  1  0  0  0  0
 72 73  1  0  0  0  0
 74 75  1  0  0  0  0
 75 76  2  0  0  0  0
 75 80  1  0  0  0  0
 76 77  1  0  0  0  0
 77 78  2  0  0  0  0
 78 79  1  0  0  0  0
 79 80  2  0  0  0  0
 81 82  1  0  0  0  0
 82 83  1  0  0  0  0
 82 86  2  0  0  0  0
 83 84  2  0  0  0  0
 84 85  1  0  0  0  0
 85 86  1  0  0  0  0
 87 88  1  0  0  0  0
 87 91  1  1  0  0  0
 88 89  1  0  0  0  0
 88 90  2  0  0  0  0
 89 97  1  0  0  0  0
 91 92  1  0  0  0  0
 92 93  2  0  0  0  0
 92 94  1  0  0  0  0
 95 97  1  0  0  0  0
 96 98  1  0  0  0  0
 98 99  2  0  0  0  0
 98100  1  0  0  0  0
M  END
