181
 OpenBabel10141417493D

 14 14  0  0  1  0  0  0  0  0999 V2000
    0.4037   -1.3816    0.2317 Cl  0  0  0  0  0  0  0  0  0  0  0  0
    7.0151   -3.0230    2.1830 O   0  0  0  0  0  0  0  0  0  0  0  0
    6.8051   -1.4100    3.7067 O   0  0  0  0  0  0  0  0  0  0  0  0
    7.0301   -3.3450   -0.3350 N   0  0  0  0  0  0  0  0  0  0  0  0
    6.4490   -0.9097    0.0426 C   0  0  3  0  0  0  0  0  0  0  0  0
    4.9290   -1.0557    0.0624 C   0  0  0  0  0  0  0  0  0  0  0  0
    7.0880   -0.7028    1.4332 C   0  0  0  0  0  0  0  0  0  0  0  0
    7.1921   -1.9665   -0.8139 C   0  0  0  0  0  0  0  0  0  0  0  0
    4.1164   -0.1416   -0.6316 C   0  0  0  0  0  0  0  0  0  0  0  0
    4.2883   -2.0776    0.7802 C   0  0  0  0  0  0  0  0  0  0  0  0
    6.9219   -1.7286    2.5372 C   0  0  0  0  0  0  0  0  0  0  0  0
    2.7183   -0.2424   -0.5834 C   0  0  0  0  0  0  0  0  0  0  0  0
    2.8987   -2.1787    0.8332 C   0  0  0  0  0  0  0  0  0  0  0  0
    2.1163   -1.2577    0.1547 C   0  0  0  0  0  0  0  0  0  0  0  0
  1 14  1  0  0  0  0
  2 11  1  0  0  0  0
  3 11  2  0  0  0  0
  4  8  1  0  0  0  0
  5  6  1  0  0  0  0
  5  7  1  0  0  0  0
  5  8  1  0  0  0  0
  6  9  2  0  0  0  0
  6 10  1  0  0  0  0
  7 11  1  0  0  0  0
  9 12  1  0  0  0  0
 10 13  2  0  0  0  0
 12 14  2  0  0  0  0
 13 14  1  0  0  0  0
M  END
