
 OpenBabel10141417493D

 26 27  0  0  0  0  0  0  0  0999 V2000
   -0.9019    0.1696    2.0795 C   0  0  0  0  0  0  0  0  0  0  0  0
    0.0208   -0.9694    2.3624 C   0  0  0  0  0  0  0  0  0  0  0  0
    2.9212    8.8169   -0.4104 C   0  0  0  0  0  0  0  0  0  0  0  0
   -0.5563    3.8184    1.2891 N   0  0  0  0  0  0  0  0  0  0  0  0
    0.6885    3.8575    1.3070 N   0  0  0  0  0  0  0  0  0  0  0  0
   -2.2991    0.0700    2.0545 C   0  0  0  0  0  0  0  0  0  0  0  0
    6.7325   10.9028   -2.7157 C   0  0  0  0  0  0  0  0  0  0  0  0
   -0.3061    1.4111    1.8303 C   0  0  0  0  0  0  0  0  0  0  0  0
    2.3552    7.5244    0.0536 C   0  0  0  0  0  0  0  0  0  0  0  0
    6.1119    9.6349   -2.2152 C   0  0  0  0  0  0  0  0  0  0  0  0
    1.2310   -0.8538    2.3488 O   0  0  0  0  0  0  0  0  0  0  0  0
    2.2905    9.8564   -0.2598 O   0  0  0  0  0  0  0  0  0  0  0  0
   -1.0827    2.5448    1.5583 C   0  0  0  0  0  0  0  0  0  0  0  0
    8.0774   10.8536   -2.7113 O   0  0  0  0  0  0  0  0  0  0  0  0
    4.1504    8.7500   -1.0303 N   0  0  0  0  0  0  0  0  0  0  0  0
   -3.0886    1.1830    1.7718 C   0  0  0  0  0  0  0  0  0  0  0  0
    3.1691    6.4426    0.4109 C   0  0  0  0  0  0  0  0  0  0  0  0
    0.9661    7.4057    0.1402 C   0  0  0  0  0  0  0  0  0  0  0  0
    1.1982    5.1061    0.9058 C   0  0  0  0  0  0  0  0  0  0  0  0
   -0.5930   -2.1395    2.6406 O   0  0  0  0  0  0  0  0  0  0  0  0
    4.7765    9.9428   -1.5624 C   0  0  0  0  0  0  0  0  0  0  0  0
    6.1517   11.8911   -3.1309 O   0  0  0  0  0  0  0  0  0  0  0  0
   -2.4761    2.4122    1.5281 C   0  0  0  0  0  0  0  0  0  0  0  0
    0.3962    6.2044    0.5579 C   0  0  0  0  0  0  0  0  0  0  0  0
    2.5892    5.2433    0.8313 C   0  0  0  0  0  0  0  0  0  0  0  0
   -2.9054   -1.1318    2.3166 O   0  0  0  0  0  0  0  0  0  0  0  0
  2  1  1  0  0  0  0
  3  9  1  0  0  0  0
  4 13  1  0  0  0  0
  5  4  2  0  0  0  0
  6  1  1  0  0  0  0
  7 10  1  0  0  0  0
  8  1  2  0  0  0  0
  9 17  2  0  0  0  0
 10 21  1  0  0  0  0
 11  2  2  0  0  0  0
 12  3  2  0  0  0  0
 13  8  1  0  0  0  0
 14  7  1  0  0  0  0
 15  3  1  0  0  0  0
 16  6  2  0  0  0  0
 16 23  1  0  0  0  0
 17 25  1  0  0  0  0
 18 24  2  0  0  0  0
 18  9  1  0  0  0  0
 19  5  1  0  0  0  0
 20  2  1  0  0  0  0
 21 15  1  0  0  0  0
 22  7  2  0  0  0  0
 23 13  2  0  0  0  0
 24 19  1  0  0  0  0
 25 19  2  0  0  0  0
 26  6  1  0  0  0  0
M  END
