1408
 OpenBabel10141417493D

 26 26  0  0  1  0  0  0  0  0999 V2000
    3.3141    1.2378   -1.1338 O   0  0  0  0  0  0  0  0  0  0  0  0
    4.8424   -2.8561   -3.4695 O   0  0  0  0  0  0  0  0  0  0  0  0
    2.0535   -4.6563    0.0403 O   0  0  0  0  0  0  0  0  0  0  0  0
    3.5210   -4.2557   -4.7599 O   0  0  0  0  0  0  0  0  0  0  0  0
    0.1872   -3.6417    0.9963 O   0  0  0  0  0  0  0  0  0  0  0  0
    0.8631    1.8733    0.3320 N   0  0  0  0  0  0  0  0  0  0  0  0
    5.7978   -4.0865   -5.1514 N   0  0  0  0  0  0  0  0  0  0  0  0
    0.6639   -5.8459    1.4414 N   0  0  0  0  0  0  0  0  0  0  0  0
   -0.5907    2.1738    0.3904 C   0  0  0  0  0  0  0  0  0  0  0  0
    1.1675    0.5320   -0.2222 C   0  0  0  0  0  0  0  0  0  0  0  0
    2.6906    0.2534   -0.3076 C   0  0  3  0  0  0  0  0  0  0  0  0
   -1.1942    2.1352   -1.0222 C   0  0  0  0  0  0  0  0  0  0  0  0
   -1.3598    1.2017    1.3070 C   0  0  0  0  0  0  0  0  0  0  0  0
   -0.7742    3.6043    0.9446 C   0  0  0  0  0  0  0  0  0  0  0  0
    2.9604   -1.1414   -0.8315 C   0  0  0  0  0  0  0  0  0  0  0  0
    2.4188   -2.2384   -0.1451 C   0  0  0  0  0  0  0  0  0  0  0  0
    3.7372   -1.3878   -1.9683 C   0  0  0  0  0  0  0  0  0  0  0  0
    3.9307   -2.6963   -2.4136 C   0  0  0  0  0  0  0  0  0  0  0  0
    2.5935   -3.5338   -0.6188 C   0  0  0  0  0  0  0  0  0  0  0  0
    3.3784   -3.7831   -1.7409 C   0  0  0  0  0  0  0  0  0  0  0  0
    4.6204   -3.7708   -4.4893 C   0  0  0  0  0  0  0  0  0  0  0  0
    0.8933   -4.6196    0.8335 C   0  0  0  0  0  0  0  0  0  0  0  0
    7.0025   -3.2901   -4.9834 C   0  0  0  0  0  0  0  0  0  0  0  0
    5.7609   -5.0086   -6.2666 C   0  0  0  0  0  0  0  0  0  0  0  0
    1.2589   -7.0707    0.9393 C   0  0  0  0  0  0  0  0  0  0  0  0
   -0.3957   -5.9773    2.4263 C   0  0  0  0  0  0  0  0  0  0  0  0
  1 11  1  0  0  0  0
  2 18  1  0  0  0  0
  2 21  1  0  0  0  0
  3 19  1  0  0  0  0
  3 22  1  0  0  0  0
  4 21  2  0  0  0  0
  5 22  2  0  0  0  0
  6  9  1  0  0  0  0
  6 10  1  0  0  0  0
  7 21  1  0  0  0  0
  7 23  1  0  0  0  0
  7 24  1  0  0  0  0
  8 22  1  0  0  0  0
  8 25  1  0  0  0  0
  8 26  1  0  0  0  0
  9 12  1  0  0  0  0
  9 13  1  0  0  0  0
  9 14  1  0  0  0  0
 10 11  1  0  0  0  0
 11 15  1  0  0  0  0
 15 16  2  0  0  0  0
 15 17  1  0  0  0  0
 16 19  1  0  0  0  0
 17 18  2  0  0  0  0
 18 20  1  0  0  0  0
 19 20  2  0  0  0  0
M  END
