[NO NAME]
 OpenBabel10141417483D
Created with ChemWriter - http://chemwriter.com
 36 39  0  0  1  0  0  0  0  0999 V2000
    1.9800    2.3301   -1.4242 C   0  0  1  0  0  0  0  0  0  0  0  0
    1.4004    3.7752   -1.6076 C   0  0  0  0  0  0  0  0  0  0  0  0
    0.0338    3.5503    0.5722 C   0  0  0  0  0  0  0  0  0  0  0  0
    0.1341    4.1276   -0.8284 C   0  0  0  0  0  0  0  0  0  0  0  0
    1.9117    1.8763    0.1110 C   0  0  2  0  0  0  0  0  0  0  0  0
    0.4411    2.0656    0.6019 C   0  0  2  0  0  0  0  0  0  0  0  0
    0.5830    1.2130    4.3212 C   0  0  2  0  0  0  0  0  0  0  0  0
    0.6251    2.1810    3.1456 C   0  0  0  0  0  0  0  0  0  0  0  0
   -0.2848    1.8588    5.3948 C   0  0  0  0  0  0  0  0  0  0  0  0
    2.3902    0.4100    0.4048 C   0  0  1  0  0  0  0  0  0  0  0  0
    3.8008    0.2426    0.2280 O   0  0  0  0  0  0  0  0  0  0  0  0
    1.1441    1.4535   -2.3762 C   0  0  0  0  0  0  0  0  0  0  0  0
    1.4193    4.2885   -2.8613 C   0  0  0  0  0  0  0  0  0  0  0  0
    0.5081    1.9596   -3.4501 C   0  0  0  0  0  0  0  0  0  0  0  0
    0.6187    3.4101   -3.7991 C   0  0  0  0  0  0  0  0  0  0  0  0
    0.1341    3.8554   -4.8303 O   0  0  0  0  0  0  0  0  0  0  0  0
    3.0708    2.9708    1.0493 Cl  0  0  0  0  0  0  0  0  0  0  0  0
    0.5551   -0.0369    2.1787 C   0  0  1  0  0  0  0  0  0  0  0  0
   -0.1965   -1.0361    1.2561 C   0  0  0  0  0  0  0  0  0  0  0  0
    0.0815    1.4219    1.9480 C   0  0  2  0  0  0  0  0  0  0  0  0
    3.4333    2.2309   -1.9653 C   0  0  0  0  0  0  0  0  0  0  0  0
    2.0588   -0.1151    1.8271 C   0  0  0  0  0  0  0  0  0  0  0  0
    2.0698   -1.0957    5.5102 C   0  0  0  0  0  0  0  0  0  0  0  0
    1.0261   -1.3912    4.4116 C   0  0  0  0  0  0  0  0  0  0  0  0
    0.8240   -2.5561    4.0474 O   0  0  0  0  0  0  0  0  0  0  0  0
    4.2093   -1.9207    4.8855 C   0  0  0  0  0  0  0  0  0  0  0  0
    5.4578   -1.5931    4.0958 C   0  0  0  0  0  0  0  0  0  0  0  0
    3.9688   -3.0386    5.3282 O   0  0  0  0  0  0  0  0  0  0  0  0
    6.3447   -0.5619    4.7663 C   0  0  0  0  0  0  0  0  0  0  0  0
    3.3766   -0.8438    4.9708 O   0  0  0  0  0  0  0  0  0  0  0  0
   -4.1557   -1.4041    5.8043 C   0  0  0  0  0  0  0  0  0  0  0  0
    0.2213   -0.2051    3.7540 C   0  0  1  0  0  0  0  0  0  0  0  0
   -1.2241   -0.3902    3.8293 O   0  0  0  0  0  0  0  0  0  0  0  0
   -1.8039   -0.8005    5.0063 C   0  0  0  0  0  0  0  0  0  0  0  0
   -1.2104   -1.1728    5.9839 O   0  0  0  0  0  0  0  0  0  0  0  0
   -3.2970   -0.4962    4.9452 C   0  0  0  0  0  0  0  0  0  0  0  0
  1 12  1  0  0  0  0
  1 21  1  6  0  0  0
  1  2  1  0  0  0  0
  2 13  2  0  0  0  0
  3  4  1  0  0  0  0
  4  2  1  0  0  0  0
  5  1  1  0  0  0  0
  5 10  1  0  0  0  0
  5 17  1  6  0  0  0
  6  5  1  0  0  0  0
  6  3  1  6  0  0  0
  7  8  1  0  0  0  0
  7  9  1  6  0  0  0
 10 22  1  0  0  0  0
 10 11  1  1  0  0  0
 12 14  2  0  0  0  0
 13 15  1  0  0  0  0
 14 15  1  0  0  0  0
 15 16  2  0  0  0  0
 18 32  1  0  0  0  0
 18 22  1  0  0  0  0
 18 19  1  1  0  0  0
 20  6  1  0  0  0  0
 20  8  1  1  0  0  0
 20 18  1  0  0  0  0
 23 30  1  0  0  0  0
 24 23  1  0  0  0  0
 24 25  2  0  0  0  0
 26 27  1  0  0  0  0
 26 28  2  0  0  0  0
 27 29  1  0  0  0  0
 30 26  1  0  0  0  0
 32  7  1  0  0  0  0
 32 33  1  1  0  0  0
 32 24  1  0  0  0  0
 33 34  1  0  0  0  0
 34 36  1  0  0  0  0
 34 35  2  0  0  0  0
 36 31  1  0  0  0  0
M  END
