
 OpenBabel10141417493D

 37 41  0  0  1  0  0  0  0  0999 V2000
    0.6616   -9.4812    7.6265 C   0  0  0  0  0  0  0  0  0  0  0  0
    0.3098  -10.6324    6.9148 C   0  0  0  0  0  0  0  0  0  0  0  0
    0.6718  -10.7346    5.5711 C   0  0  0  0  0  0  0  0  0  0  0  0
    1.3258   -9.6725    4.9711 C   0  0  0  0  0  0  0  0  0  0  0  0
    1.6013   -8.4923    5.6794 C   0  0  0  0  0  0  0  0  0  0  0  0
    1.3107   -8.3987    7.0760 C   0  0  0  0  0  0  0  0  0  0  0  0
    2.0664   -7.3107    5.1112 C   0  0  0  0  0  0  0  0  0  0  0  0
    2.3098   -6.0699    5.7267 C   0  0  0  0  0  0  0  0  0  0  0  0
    2.1068   -6.1785    7.1055 C   0  0  0  0  0  0  0  0  0  0  0  0
    1.6154   -7.2968    7.7389 N   0  0  0  0  0  0  0  0  0  0  0  0
    2.6072   -4.6245    5.0614 C   0  0  2  0  0  0  0  0  0  0  0  0
    1.2864   -3.7873    4.4231 C   0  0  1  0  0  0  0  0  0  0  0  0
    4.0447   -4.4675    4.2888 C   0  0  0  0  0  0  0  0  0  0  0  0
    2.3505   -5.0720    7.8781 O   0  0  0  0  0  0  0  0  0  0  0  0
    1.5617   -5.0747    9.0703 C   0  0  0  0  0  0  0  0  0  0  0  0
    0.5961   -4.2953    3.0641 C   0  0  0  0  0  0  0  0  0  0  0  0
    0.0935   -3.4698    5.5071 C   0  0  0  0  0  0  0  0  0  0  0  0
    1.3631   -4.5937    1.7016 C   0  0  0  0  0  0  0  0  0  0  0  0
    2.0371   -5.8990    1.4609 N   0  0  0  0  0  0  0  0  0  0  0  0
    2.7744   -6.0339    0.2172 C   0  0  0  0  0  0  0  0  0  0  0  0
    2.9663   -6.4042    2.4235 C   0  0  0  0  0  0  0  0  0  0  0  0
   -0.5040   -4.5425    6.2046 C   0  0  0  0  0  0  0  0  0  0  0  0
   -1.5467   -4.3672    7.1335 C   0  0  0  0  0  0  0  0  0  0  0  0
   -2.1791   -3.1435    7.2620 C   0  0  0  0  0  0  0  0  0  0  0  0
   -1.7475   -2.0664    6.4990 C   0  0  0  0  0  0  0  0  0  0  0  0
   -0.5328   -2.1642    5.7381 C   0  0  0  0  0  0  0  0  0  0  0  0
   -2.5329   -0.8938    6.5127 C   0  0  0  0  0  0  0  0  0  0  0  0
   -2.1167    0.2461    5.8435 C   0  0  0  0  0  0  0  0  0  0  0  0
   -0.8391    0.2627    5.3165 C   0  0  0  0  0  0  0  0  0  0  0  0
   -0.0588   -0.9040    5.3110 C   0  0  0  0  0  0  0  0  0  0  0  0
    5.2106   -4.8758    4.9336 C   0  0  0  0  0  0  0  0  0  0  0  0
    6.4487   -4.9559    4.2505 C   0  0  0  0  0  0  0  0  0  0  0  0
    6.5615   -4.7063    2.8833 C   0  0  0  0  0  0  0  0  0  0  0  0
    5.4555   -4.2249    2.2244 C   0  0  0  0  0  0  0  0  0  0  0  0
    4.2606   -4.0115    2.9532 C   0  0  0  0  0  0  0  0  0  0  0  0
    1.8018   -2.4899    4.0387 O   0  0  0  0  0  0  0  0  0  0  0  0
    0.2148  -12.2779    4.5896 Br  0  0  0  0  0  0  0  0  0  0  0  0
  1  2  2  0  0  0  0
  1  6  1  0  0  0  0
  2  3  1  0  0  0  0
  3  4  2  0  0  0  0
  3 37  1  0  0  0  0
  4  5  1  0  0  0  0
  5  6  2  0  0  0  0
  5  7  1  0  0  0  0
  6 10  1  0  0  0  0
  7  8  2  0  0  0  0
  8  9  1  0  0  0  0
  9 10  2  0  0  0  0
  9 14  1  0  0  0  0
 11 13  1  6  0  0  0
 11 12  1  0  0  0  0
 11  8  1  0  0  0  0
 12 16  1  6  0  0  0
 12 17  1  0  0  0  0
 12 36  1  0  0  0  0
 13 31  2  0  0  0  0
 13 35  1  0  0  0  0
 14 15  1  0  0  0  0
 16 18  1  0  0  0  0
 17 22  2  0  0  0  0
 17 26  1  0  0  0  0
 18 19  1  0  0  0  0
 19 20  1  0  0  0  0
 19 21  1  0  0  0  0
 22 23  1  0  0  0  0
 23 24  2  0  0  0  0
 24 25  1  0  0  0  0
 25 26  2  0  0  0  0
 25 27  1  0  0  0  0
 26 30  1  0  0  0  0
 27 28  2  0  0  0  0
 28 29  1  0  0  0  0
 29 30  2  0  0  0  0
 31 32  1  0  0  0  0
 32 33  2  0  0  0  0
 33 34  1  0  0  0  0
 34 35  2  0  0  0  0
M  END
