542
 OpenBabel10141418363D

 31 33  0  0  1  0  0  0  0  0999 V2000
    4.3903    4.6294   -2.2001 O   0  0  0  0  0  0  0  0  0  0  0  0
    6.1309    0.8987   -4.1667 O   0  0  0  0  0  0  0  0  0  0  0  0
    4.2170    1.9800   -3.5829 O   0  0  0  0  0  0  0  0  0  0  0  0
    2.8923    8.3734    0.1272 O   0  0  0  0  0  0  0  0  0  0  0  0
    1.8659    6.3978   -0.2635 O   0  0  0  0  0  0  0  0  0  0  0  0
    5.0009    1.7372   -0.7130 N   0  0  0  0  0  0  0  0  0  0  0  0
    4.4744    5.1397    0.0314 N   0  0  0  0  0  0  0  0  0  0  0  0
    3.9023    2.7627   -0.7941 C   0  0  1  0  0  0  0  0  0  0  0  0
    2.9033    2.7357    0.3656 C   0  0  0  0  0  0  0  0  0  0  0  0
    3.5927    2.5768    1.6930 C   0  0  0  0  0  0  0  0  0  0  0  0
    5.9547    1.5875   -1.8615 C   0  0  1  0  0  0  0  0  0  0  0  0
    4.2967    4.2337   -1.0267 C   0  0  0  0  0  0  0  0  0  0  0  0
    4.6706    3.5819    2.0158 C   0  0  0  0  0  0  0  0  0  0  0  0
    4.8435    4.8353    1.3965 C   0  0  0  0  0  0  0  0  0  0  0  0
    7.0272    0.4432   -1.6085 C   0  0  0  0  0  0  0  0  0  0  0  0
    6.4583   -0.9881   -1.4767 C   0  0  0  0  0  0  0  0  0  0  0  0
    4.3215    6.5737   -0.3800 C   0  0  0  0  0  0  0  0  0  0  0  0
    5.2619    1.4693   -3.2642 C   0  0  0  0  0  0  0  0  0  0  0  0
    5.3999    3.2637    3.1886 C   0  0  0  0  0  0  0  0  0  0  0  0
    5.5340    5.8040    2.1620 C   0  0  0  0  0  0  0  0  0  0  0  0
    7.3804   -2.2117   -1.5219 C   0  0  0  0  0  0  0  0  0  0  0  0
    6.1993    4.1983    3.8270 C   0  0  0  0  0  0  0  0  0  0  0  0
    6.2111    5.4920    3.3477 C   0  0  0  0  0  0  0  0  0  0  0  0
    2.9137    7.0303   -0.1548 C   0  0  0  0  0  0  0  0  0  0  0  0
    8.5819   -2.3569   -0.8162 C   0  0  0  0  0  0  0  0  0  0  0  0
    6.9249   -3.3356   -2.2475 C   0  0  0  0  0  0  0  0  0  0  0  0
    5.9432    1.1470   -5.5719 C   0  0  0  0  0  0  0  0  0  0  0  0
    9.3198   -3.5604   -0.8986 C   0  0  0  0  0  0  0  0  0  0  0  0
    7.6591   -4.5232   -2.3396 C   0  0  0  0  0  0  0  0  0  0  0  0
    8.8701   -4.6323   -1.6743 C   0  0  0  0  0  0  0  0  0  0  0  0
    4.5561    0.9385   -6.1661 C   0  0  0  0  0  0  0  0  0  0  0  0
  1 12  2  0  0  0  0
  2 18  1  0  0  0  0
  2 27  1  0  0  0  0
  3 18  2  0  0  0  0
  4 24  1  0  0  0  0
  5 24  2  0  0  0  0
  7 12  1  0  0  0  0
  7 14  1  0  0  0  0
  7 17  1  0  0  0  0
  8  9  1  0  0  0  0
  8 12  1  0  0  0  0
  8  6  1  1  0  0  0
  9 10  1  0  0  0  0
 10 13  1  0  0  0  0
 11  6  1  1  0  0  0
 11 15  1  0  0  0  0
 11 18  1  0  0  0  0
 13 14  1  0  0  0  0
 13 19  2  0  0  0  0
 14 20  2  0  0  0  0
 15 16  1  0  0  0  0
 16 21  1  0  0  0  0
 17 24  1  0  0  0  0
 19 22  1  0  0  0  0
 20 23  1  0  0  0  0
 21 25  2  0  0  0  0
 21 26  1  0  0  0  0
 22 23  2  0  0  0  0
 25 28  1  0  0  0  0
 26 29  2  0  0  0  0
 27 31  1  0  0  0  0
 28 30  2  0  0  0  0
 29 30  1  0  0  0  0
M  END
