
 OpenBabel10141417493D

  9  6  0  0  0  0  0  0  0  0999 V2000
    0.6627    2.0081    1.7521 Si  0  0  0  0  0  0  0  0  0  0  0  0
   -1.9870   -2.4251    0.8401 Al  0  0  0  0  0  0  0  0  0  0  0  0
   -0.5881    0.0196    1.6809 Al  0  0  0  0  0  0  0  0  0  0  0  0
   -0.3724   -1.7897    1.4436 O   0  0  0  0  0  0  0  0  0  0  0  0
   -2.0117   -2.3666   -0.7972 O   0  0  0  0  0  0  0  0  0  0  0  0
   -1.1007    0.3049    3.2106 O   0  0  0  0  0  0  0  0  0  0  0  0
    0.3848    0.8509    2.7145 O   0  0  0  0  0  0  0  0  0  0  0  0
    2.1743    2.1568    1.5589 O   0  0  0  0  0  0  0  0  0  0  0  0
    2.0800    1.1788   -1.6873 O   0  0  0  0  0  0  0  0  0  0  0  0
  1  7  2  0  0  0  0
  1  8  2  0  0  0  0
  2  4  1  0  0  0  0
  2  5  2  0  0  0  0
  3  4  1  0  0  0  0
  3  6  2  0  0  0  0
M  END
