1086
 OpenBabel10141417513D

 12 12  0  0  0  0  0  0  0  0999 V2000
    0.5330    0.1866    0.0826 O   0  0  0  0  0  0  0  0  0  0  0  0
    0.6370   -0.3983    2.3030 O   0  0  0  0  0  0  0  0  0  0  0  0
   -5.6750   -0.5083    1.0845 N   0  0  0  0  0  0  0  0  0  0  0  0
   -1.4715   -0.2827    1.1858 C   0  0  0  0  0  0  0  0  0  0  0  0
   -2.1939   -0.5531    2.3535 C   0  0  0  0  0  0  0  0  0  0  0  0
   -2.1626   -0.0903   -0.0159 C   0  0  0  0  0  0  0  0  0  0  0  0
   -4.2764   -0.5267    1.1022 C   0  0  0  0  0  0  0  0  0  0  0  0
   -3.5885   -0.6505    2.3118 C   0  0  0  0  0  0  0  0  0  0  0  0
   -3.5569   -0.1909   -0.0471 C   0  0  0  0  0  0  0  0  0  0  0  0
    0.0088   -0.1861    1.2767 C   0  0  0  0  0  0  0  0  0  0  0  0
    1.9545    0.3742    0.0614 C   0  0  0  0  0  0  0  0  0  0  0  0
    2.3040    1.7545    0.5862 C   0  0  0  0  0  0  0  0  0  0  0  0
  1 10  1  0  0  0  0
  1 11  1  0  0  0  0
  2 10  2  0  0  0  0
  3  7  1  0  0  0  0
  4  5  2  0  0  0  0
  4  6  1  0  0  0  0
  4 10  1  0  0  0  0
  5  8  1  0  0  0  0
  6  9  2  0  0  0  0
  7  8  2  0  0  0  0
  7  9  1  0  0  0  0
 11 12  1  0  0  0  0
M  END
