
 OpenBabel10141417493D

 18 19  0  0  0  0  0  0  0  0999 V2000
   -4.1811   -1.6835   -2.3371 C   0  0  0  0  0  0  0  0  0  0  0  0
   -3.1250   -1.2270   -1.3687 C   0  0  0  0  0  0  0  0  0  0  0  0
   -5.1471   -2.5459   -1.9569 C   0  0  0  0  0  0  0  0  0  0  0  0
   -4.2290   -1.4074   -3.6675 C   0  0  0  0  0  0  0  0  0  0  0  0
   -3.1840    0.2546   -0.8044 C   0  0  1  0  0  0  0  0  0  0  0  0
   -6.2734   -2.9377   -2.6803 C   0  0  0  0  0  0  0  0  0  0  0  0
   -5.3936   -1.7433   -4.4446 C   0  0  0  0  0  0  0  0  0  0  0  0
   -3.9651    0.6023    0.4150 N   0  0  0  0  0  0  0  0  0  0  0  0
   -1.7007    0.6824   -0.6105 C   0  0  0  0  0  0  0  0  0  0  0  0
   -6.4551   -2.3957   -3.9085 C   0  0  0  0  0  0  0  0  0  0  0  0
   -5.4344    0.4934    0.4408 C   0  0  0  0  0  0  0  0  0  0  0  0
   -3.3478    0.5060    1.7273 C   0  0  0  0  0  0  0  0  0  0  0  0
   -6.0793   -0.8835    0.5327 C   0  0  0  0  0  0  0  0  0  0  0  0
   -5.4924   -1.9750    1.2052 C   0  0  0  0  0  0  0  0  0  0  0  0
   -7.2700   -1.1188   -0.1780 C   0  0  0  0  0  0  0  0  0  0  0  0
   -5.9144   -3.2928    0.9730 C   0  0  0  0  0  0  0  0  0  0  0  0
   -7.7812   -2.4209   -0.3018 C   0  0  0  0  0  0  0  0  0  0  0  0
   -7.0453   -3.5165    0.1906 C   0  0  0  0  0  0  0  0  0  0  0  0
  1  2  1  0  0  0  0
  1  3  1  0  0  0  0
  1  4  2  0  0  0  0
  3  6  2  0  0  0  0
  4  7  1  0  0  0  0
  5  2  1  1  0  0  0
  5  8  1  0  0  0  0
  5  9  1  0  0  0  0
  6 10  1  0  0  0  0
  7 10  2  0  0  0  0
  8 11  1  0  0  0  0
  8 12  1  0  0  0  0
 11 13  1  0  0  0  0
 13 14  2  0  0  0  0
 13 15  1  0  0  0  0
 14 16  1  0  0  0  0
 15 17  2  0  0  0  0
 16 18  2  0  0  0  0
 17 18  1  0  0  0  0
M  END
