868
 OpenBabel10141417503D

 42 42  0  0  0  0  0  0  0  0999 V2000
    7.9972   -4.1768   -5.2373 O   0  0  0  0  0  0  0  0  0  0  0  0
    9.5343   -3.1346   -9.0833 O   0  0  0  0  0  0  0  0  0  0  0  0
    6.9327   -2.6973   -2.8965 O   0  0  0  0  0  0  0  0  0  0  0  0
   13.6110   -3.5658   -8.9338 O   0  0  0  0  0  0  0  0  0  0  0  0
    4.0277   -1.5337   -2.2605 O   0  0  0  0  0  0  0  0  0  0  0  0
    0.9880   -1.9632   -0.1094 O   0  0  0  0  0  0  0  0  0  0  0  0
    0.3780   -5.0811    1.8646 O   0  0  0  0  0  0  0  0  0  0  0  0
   13.8915   -5.5125   -5.9013 O   0  0  0  0  0  0  0  0  0  0  0  0
   13.1817   -3.1745   -3.9778 O   0  0  0  0  0  0  0  0  0  0  0  0
    2.2605   -4.5342    3.1606 O   0  0  0  0  0  0  0  0  0  0  0  0
   11.3768   -3.9665   -5.8699 O   0  0  0  0  0  0  0  0  0  0  0  0
   -1.8150   -9.3670    5.5091 N   0  0  0  0  0  0  0  0  0  0  0  0
   -1.9247  -11.0163    3.5097 C   0  0  0  0  0  0  0  0  0  0  0  0
   -2.6997   -9.9998    4.4545 C   0  0  0  0  0  0  0  0  0  0  0  0
   -0.7874  -10.4751    2.5595 C   0  0  0  0  0  0  0  0  0  0  0  0
   -0.9678   -8.3146    5.1625 C   0  0  0  0  0  0  0  0  0  0  0  0
    0.4955   -9.9780    3.2203 C   0  0  0  0  0  0  0  0  0  0  0  0
    0.1809   -7.8092    5.8189 C   0  0  0  0  0  0  0  0  0  0  0  0
   -1.2214   -7.7848    3.9067 C   0  0  0  0  0  0  0  0  0  0  0  0
    0.6627   -6.3229    3.8512 C   0  0  0  0  0  0  0  0  0  0  0  0
    0.9804   -6.7794    5.1708 C   0  0  0  0  0  0  0  0  0  0  0  0
   -0.4081   -6.9266    3.2362 C   0  0  0  0  0  0  0  0  0  0  0  0
    8.8064   -3.8214   -6.3902 C   0  0  0  0  0  0  0  0  0  0  0  0
    8.6694   -4.0578   -8.0856 C   0  0  0  0  0  0  0  0  0  0  0  0
    8.7653   -3.9865   -3.9625 C   0  0  0  0  0  0  0  0  0  0  0  0
    8.3595   -2.7094   -3.1950 C   0  0  0  0  0  0  0  0  0  0  0  0
   10.9802   -3.4460   -9.2129 C   0  0  0  0  0  0  0  0  0  0  0  0
   12.4027   -2.7520   -9.4734 C   0  0  0  0  0  0  0  0  0  0  0  0
    6.6343   -1.6942   -1.9223 C   0  0  0  0  0  0  0  0  0  0  0  0
    5.1777   -1.3369   -1.4337 C   0  0  0  0  0  0  0  0  0  0  0  0
   14.4359   -3.3809   -7.6815 C   0  0  0  0  0  0  0  0  0  0  0  0
    2.7557   -1.1723   -1.6355 C   0  0  0  0  0  0  0  0  0  0  0  0
    2.3712   -2.0911   -0.4642 C   0  0  0  0  0  0  0  0  0  0  0  0
   14.1948   -4.1368   -6.2561 C   0  0  0  0  0  0  0  0  0  0  0  0
    1.1606   -5.2864    2.9428 C   0  0  0  0  0  0  0  0  0  0  0  0
    0.5688   -2.8064    0.9780 C   0  0  0  0  0  0  0  0  0  0  0  0
    0.7096   -4.3069    0.7172 C   0  0  0  0  0  0  0  0  0  0  0  0
   13.1019   -5.6765   -4.6208 C   0  0  0  0  0  0  0  0  0  0  0  0
   13.2684   -4.5437   -3.5635 C   0  0  0  0  0  0  0  0  0  0  0  0
   12.0274   -2.3956   -4.3220 C   0  0  0  0  0  0  0  0  0  0  0  0
   11.6226   -2.5426   -5.8206 C   0  0  0  0  0  0  0  0  0  0  0  0
   11.4356   -4.8185   -7.0055 C   0  0  0  0  0  0  0  0  0  0  0  0
  1 23  1  0  0  0  0
  1 25  1  0  0  0  0
  2 24  1  0  0  0  0
  2 27  1  0  0  0  0
  3 26  1  0  0  0  0
  3 29  1  0  0  0  0
  4 28  1  0  0  0  0
  4 31  1  0  0  0  0
  5 30  1  0  0  0  0
  5 32  1  0  0  0  0
  6 33  1  0  0  0  0
  6 36  1  0  0  0  0
  7 35  1  0  0  0  0
  7 37  1  0  0  0  0
  8 34  1  0  0  0  0
  8 38  1  0  0  0  0
  9 39  1  0  0  0  0
  9 40  1  0  0  0  0
 10 35  2  0  0  0  0
 11 41  1  0  0  0  0
 11 42  1  0  0  0  0
 12 14  1  0  0  0  0
 12 16  1  0  0  0  0
 13 14  1  0  0  0  0
 13 15  1  0  0  0  0
 15 17  1  0  0  0  0
 16 18  2  0  0  0  0
 16 19  1  0  0  0  0
 18 21  1  0  0  0  0
 19 22  2  0  0  0  0
 20 21  2  0  0  0  0
 20 22  1  0  0  0  0
 20 35  1  0  0  0  0
 23 24  1  0  0  0  0
 25 26  1  0  0  0  0
 27 28  1  0  0  0  0
 29 30  1  0  0  0  0
 31 34  1  0  0  0  0
 32 33  1  0  0  0  0
 36 37  1  0  0  0  0
 38 39  1  0  0  0  0
 40 41  1  0  0  0  0
M  END
