676
 OpenBabel10141417543D

 16 17  0  0  0  0  0  0  0  0999 V2000
    1.7357    0.6565    0.3599 O   0  0  0  0  0  0  0  0  0  0  0  0
    3.6024   -0.6699    0.1861 O   0  0  0  0  0  0  0  0  0  0  0  0
    1.2213    1.5259   -1.8091 C   0  0  0  0  0  0  0  0  0  0  0  0
    2.2214    1.5138   -0.6807 C   0  0  0  0  0  0  0  0  0  0  0  0
    1.8572   -1.2462    1.7055 C   0  0  0  0  0  0  0  0  0  0  0  0
    0.9596    0.3514   -2.5308 C   0  0  0  0  0  0  0  0  0  0  0  0
    0.5489    2.7031   -2.1644 C   0  0  0  0  0  0  0  0  0  0  0  0
    2.5165   -0.3998    0.6772 C   0  0  0  0  0  0  0  0  0  0  0  0
    0.0376    0.3522   -3.5782 C   0  0  0  0  0  0  0  0  0  0  0  0
   -0.3739    2.7017   -3.2126 C   0  0  0  0  0  0  0  0  0  0  0  0
    0.6275   -0.9026    2.2839 C   0  0  0  0  0  0  0  0  0  0  0  0
    2.4868   -2.4405    2.0835 C   0  0  0  0  0  0  0  0  0  0  0  0
   -0.6306    1.5268   -3.9172 C   0  0  0  0  0  0  0  0  0  0  0  0
    0.0262   -1.7572    3.2103 C   0  0  0  0  0  0  0  0  0  0  0  0
    1.8821   -3.2923    3.0090 C   0  0  0  0  0  0  0  0  0  0  0  0
    0.6493   -2.9534    3.5653 C   0  0  0  0  0  0  0  0  0  0  0  0
  1  4  1  0  0  0  0
  1  8  1  0  0  0  0
  2  8  2  0  0  0  0
  3  4  1  0  0  0  0
  3  6  2  0  0  0  0
  3  7  1  0  0  0  0
  5  8  1  0  0  0  0
  5 11  2  0  0  0  0
  5 12  1  0  0  0  0
  6  9  1  0  0  0  0
  7 10  2  0  0  0  0
  9 13  2  0  0  0  0
 10 13  1  0  0  0  0
 11 14  1  0  0  0  0
 12 15  2  0  0  0  0
 14 16  2  0  0  0  0
 15 16  1  0  0  0  0
M  END
