
 OpenBabel10141417483D

 43 43  0  0  0  0  0  0  0  0999 V2000
    9.8446    5.0635  -14.8201 C   0  0  0  0  0  0  0  0  0  0  0  0
   10.0797    3.9766  -15.3731 O   0  0  0  0  0  0  0  0  0  0  0  0
    9.1260    5.2362  -13.4696 C   0  0  1  0  0  0  0  0  0  0  0  0
    9.4643    4.0594  -12.5566 C   0  0  0  0  0  0  0  0  0  0  0  0
    9.5263    6.5611  -12.8990 N   0  0  0  0  0  0  0  0  0  0  0  0
   10.1800    6.2450  -15.3340 O   0  0  0  0  0  0  0  0  0  0  0  0
    8.7800    4.1591  -11.2048 C   0  0  0  0  0  0  0  0  0  0  0  0
    9.2790    3.0773  -10.2548 C   0  0  0  0  0  0  0  0  0  0  0  0
    8.9435    1.6215  -10.6042 C   0  0  0  0  0  0  0  0  0  0  0  0
    9.4621    0.7587   -9.5462 N   0  0  0  0  0  0  0  0  0  0  0  0
    9.9134   -0.5351   -9.5771 C   0  0  0  0  0  0  0  0  0  0  0  0
   10.2828   -1.0286   -8.5037 O   0  0  0  0  0  0  0  0  0  0  0  0
    9.9761   -1.3471  -10.8925 C   0  0  3  0  0  0  0  0  0  0  0  0
    9.2314   -2.6287  -10.7392 N   0  0  0  0  0  0  0  0  0  0  0  0
   11.4986   -1.5654  -11.2327 C   0  0  1  0  0  0  0  0  0  0  0  0
    8.2313   -3.0614  -11.6319 C   0  0  0  0  0  0  0  0  0  0  0  0
    7.8510   -2.2983  -12.5090 O   0  0  0  0  0  0  0  0  0  0  0  0
    7.6390   -4.4449  -11.3725 C   0  0  0  0  0  0  0  0  0  0  0  0
    6.9996   -5.3006  -12.4941 C   0  0  0  0  0  0  0  0  0  0  0  0
    6.0502   -5.6665  -14.7168 C   0  0  0  0  0  0  0  0  0  0  0  0
    6.4639   -4.7969  -13.6867 C   0  0  0  0  0  0  0  0  0  0  0  0
    6.9383   -6.6996  -12.3113 C   0  0  0  0  0  0  0  0  0  0  0  0
    6.4790   -7.5642  -13.3160 C   0  0  0  0  0  0  0  0  0  0  0  0
    6.0737   -7.0479  -14.5393 C   0  0  0  0  0  0  0  0  0  0  0  0
   11.7110   -2.5160  -12.7956 S   0  0  0  0  0  0  0  0  0  0  0  0
   12.2882   -0.3181  -11.3728 N   0  0  0  0  0  0  0  0  0  0  0  0
   12.3531    0.0070  -12.8249 C   0  0  2  0  0  0  0  0  0  0  0  0
   12.7609   -1.2533  -13.6090 C   0  0  0  0  0  0  0  0  0  0  0  0
   13.3026    1.1838  -13.0557 C   0  0  0  0  0  0  0  0  0  0  0  0
   12.6911    2.2349  -13.6407 O   0  0  0  0  0  0  0  0  0  0  0  0
   14.4803    1.2453  -12.7461 O   0  0  0  0  0  0  0  0  0  0  0  0
   14.2152   -1.7192  -13.4449 C   0  0  0  0  0  0  0  0  0  0  0  0
   12.4240   -1.1269  -15.0965 C   0  0  0  0  0  0  0  0  0  0  0  0
    0.6385   -0.0139    0.4834 C   0  0  0  0  0  0  0  0  0  0  0  0
   -0.2029   -0.5533    1.1766 O   0  0  0  0  0  0  0  0  0  0  0  0
    0.3809    0.6765   -0.8558 C   0  0  1  0  0  0  0  0  0  0  0  0
   -0.5760    1.8708   -0.6922 C   0  0  0  0  0  0  0  0  0  0  0  0
    1.6750    1.0631   -1.4886 N   0  0  0  0  0  0  0  0  0  0  0  0
    1.9648    0.0070    0.8287 O   0  0  0  0  0  0  0  0  0  0  0  0
   -0.0532    2.9769    0.2342 C   0  0  0  0  0  0  0  0  0  0  0  0
   -1.0221    4.1567    0.4112 C   0  0  0  0  0  0  0  0  0  0  0  0
   -2.3657    3.8148    1.0607 C   0  0  0  0  0  0  0  0  0  0  0  0
   -2.1887    3.2510    2.3918 N   0  0  0  0  0  0  0  0  0  0  0  0
  1  2  2  0  0  0  0
  3  1  1  6  0  0  0
  3  4  1  0  0  0  0
  3  5  1  0  0  0  0
  4  7  1  0  0  0  0
  6  1  1  0  0  0  0
  7  8  1  0  0  0  0
  8  9  1  0  0  0  0
  9 10  1  0  0  0  0
 10 11  1  0  0  0  0
 11 12  2  0  0  0  0
 11 13  1  0  0  0  0
 13 14  1  0  0  0  0
 14 16  1  0  0  0  0
 15 25  1  6  0  0  0
 15 26  1  0  0  0  0
 15 13  1  0  0  0  0
 16 17  2  0  0  0  0
 16 18  1  0  0  0  0
 18 19  1  0  0  0  0
 19 22  1  0  0  0  0
 20 21  1  0  0  0  0
 20 24  2  0  0  0  0
 21 19  2  0  0  0  0
 22 23  2  0  0  0  0
 23 24  1  0  0  0  0
 25 28  1  0  0  0  0
 26 27  1  0  0  0  0
 27 28  1  0  0  0  0
 27 29  1  1  0  0  0
 28 32  1  0  0  0  0
 28 33  1  0  0  0  0
 29 30  1  0  0  0  0
 29 31  2  0  0  0  0
 34 35  2  0  0  0  0
 36 34  1  1  0  0  0
 36 37  1  0  0  0  0
 36 38  1  0  0  0  0
 37 40  1  0  0  0  0
 39 34  1  0  0  0  0
 40 41  1  0  0  0  0
 41 42  1  0  0  0  0
 42 43  1  0  0  0  0
M  END
