
 OpenBabel10141417483D

 23 26  0  0  0  0  0  0  0  0999 V2000
    2.4524   -0.8226   -1.6899 C   0  0  1  0  0  0  0  0  0  0  0  0
    1.1326    0.2025    0.2652 C   0  0  2  0  0  0  0  0  0  0  0  0
    0.1570   -0.9598    0.0161 C   0  0  0  0  0  0  0  0  0  0  0  0
    0.7734   -2.1215   -0.7921 C   0  0  1  0  0  0  0  0  0  0  0  0
    1.3368   -1.6917   -2.0734 N   0  0  0  0  0  0  0  0  0  0  0  0
    1.9718    0.4706   -0.9993 C   0  0  0  0  0  0  0  0  0  0  0  0
    2.0548   -2.6538   -0.1443 C   0  0  0  0  0  0  0  0  0  0  0  0
    3.1744   -1.7737   -0.7251 C   0  0  0  0  0  0  0  0  0  0  0  0
    1.5288   -0.0358    2.6897 C   0  0  0  0  0  0  0  0  0  0  0  0
    2.0536   -0.0116    1.3502 O   0  0  0  0  0  0  0  0  0  0  0  0
    2.6698   -0.4713    3.6202 C   0  0  0  0  0  0  0  0  0  0  0  0
    0.8721    1.2791    3.0796 C   0  0  0  0  0  0  0  0  0  0  0  0
    3.5014    0.4395    4.2937 C   0  0  0  0  0  0  0  0  0  0  0  0
    4.5707    0.0078    5.0867 C   0  0  0  0  0  0  0  0  0  0  0  0
    4.8357   -1.3536    5.2193 C   0  0  0  0  0  0  0  0  0  0  0  0
    4.0210   -2.2765    4.5753 C   0  0  0  0  0  0  0  0  0  0  0  0
    2.9478   -1.8434    3.7854 C   0  0  0  0  0  0  0  0  0  0  0  0
    1.3595    2.5094    2.5982 C   0  0  0  0  0  0  0  0  0  0  0  0
    0.7436    3.7106    2.9466 C   0  0  0  0  0  0  0  0  0  0  0  0
   -0.3660    3.6982    3.7889 C   0  0  0  0  0  0  0  0  0  0  0  0
   -0.8540    2.4905    4.2892 C   0  0  0  0  0  0  0  0  0  0  0  0
   -0.2378    1.2879    3.9397 C   0  0  0  0  0  0  0  0  0  0  0  0
    0.4135   -1.1842   -3.0643 C   0  0  0  0  0  0  0  0  0  0  0  0
  1  5  1  1  0  0  0
  1  6  1  0  0  0  0
  1  8  1  0  0  0  0
  2  3  1  0  0  0  0
  2 10  1  1  0  0  0
  3  4  1  0  0  0  0
  4  5  1  6  0  0  0
  4  7  1  0  0  0  0
  5 23  1  0  0  0  0
  6  2  1  0  0  0  0
  7  8  1  0  0  0  0
  9 11  1  0  0  0  0
  9 12  1  0  0  0  0
 10  9  1  0  0  0  0
 11 13  2  0  0  0  0
 12 18  2  0  0  0  0
 13 14  1  0  0  0  0
 14 15  2  0  0  0  0
 15 16  1  0  0  0  0
 16 17  2  0  0  0  0
 17 11  1  0  0  0  0
 18 19  1  0  0  0  0
 19 20  2  0  0  0  0
 20 21  1  0  0  0  0
 21 22  2  0  0  0  0
 22 12  1  0  0  0  0
M  END
