1244
 OpenBabel10141417483D

 27 29  0  0  1  0  0  0  0  0999 V2000
    0.4498   -3.7203   -4.1348 O   0  0  0  0  0  0  0  0  0  0  0  0
   -1.9831   -3.1883   -2.4377 N   0  0  0  0  0  0  0  0  0  0  0  0
    0.6037   -0.2276   -3.1565 N   0  0  0  0  0  0  0  0  0  0  0  0
   -1.2271   -2.1527   -3.2279 C   0  0  3  0  0  0  0  0  0  0  0  0
   -2.9154   -2.5921   -1.4581 C   0  0  0  0  0  0  0  0  0  0  0  0
   -2.8256   -4.0885   -3.2717 C   0  0  0  0  0  0  0  0  0  0  0  0
   -4.2870   -2.6181   -2.1123 C   0  0  0  0  0  0  0  0  0  0  0  0
   -4.2667   -3.9679   -2.7866 C   0  0  0  0  0  0  0  0  0  0  0  0
   -0.2271   -1.2545   -2.4133 C   0  0  0  0  0  0  0  0  0  0  0  0
   -0.4940   -2.7100   -4.4776 C   0  0  0  0  0  0  0  0  0  0  0  0
    1.9586   -0.7128   -3.6030 C   0  0  0  0  0  0  0  0  0  0  0  0
    0.0145    0.7578   -3.9721 C   0  0  0  0  0  0  0  0  0  0  0  0
    1.2346   -4.2423   -5.2101 C   0  0  0  0  0  0  0  0  0  0  0  0
    0.4591   -5.1633   -6.1795 C   0  0  0  0  0  0  0  0  0  0  0  0
    3.2086   -0.0342   -3.0327 C   0  0  0  0  0  0  0  0  0  0  0  0
    0.6638    1.9862   -4.1733 C   0  0  0  0  0  0  0  0  0  0  0  0
   -1.1737    0.6198   -4.7036 C   0  0  0  0  0  0  0  0  0  0  0  0
   -0.5386   -4.4078   -7.0611 C   0  0  0  0  0  0  0  0  0  0  0  0
    1.4046   -5.9625   -7.0861 C   0  0  0  0  0  0  0  0  0  0  0  0
    3.1619    0.9304   -2.0199 C   0  0  0  0  0  0  0  0  0  0  0  0
    4.4838   -0.3748   -3.5404 C   0  0  0  0  0  0  0  0  0  0  0  0
    0.2039    2.9242   -5.1113 C   0  0  0  0  0  0  0  0  0  0  0  0
   -1.6598    1.5425   -5.6222 C   0  0  0  0  0  0  0  0  0  0  0  0
   -0.9492    2.6953   -5.8486 C   0  0  0  0  0  0  0  0  0  0  0  0
    4.3193    1.6200   -1.6251 C   0  0  0  0  0  0  0  0  0  0  0  0
    5.6520    0.2686   -3.0958 C   0  0  0  0  0  0  0  0  0  0  0  0
    5.5614    1.2918   -2.1581 C   0  0  0  0  0  0  0  0  0  0  0  0
  1 10  1  0  0  0  0
  1 13  1  0  0  0  0
  2  4  1  0  0  0  0
  2  5  1  0  0  0  0
  2  6  1  0  0  0  0
  3  9  1  0  0  0  0
  3 11  1  0  0  0  0
  3 12  1  0  0  0  0
  4  9  1  0  0  0  0
  4 10  1  0  0  0  0
  5  7  1  0  0  0  0
  6  8  1  0  0  0  0
  7  8  1  0  0  0  0
 11 15  1  0  0  0  0
 12 16  2  0  0  0  0
 12 17  1  0  0  0  0
 13 14  1  0  0  0  0
 14 18  1  0  0  0  0
 14 19  1  0  0  0  0
 15 20  2  0  0  0  0
 15 21  1  0  0  0  0
 16 22  1  0  0  0  0
 17 23  2  0  0  0  0
 20 25  1  0  0  0  0
 21 26  2  0  0  0  0
 22 24  2  0  0  0  0
 23 24  1  0  0  0  0
 25 27  2  0  0  0  0
 26 27  1  0  0  0  0
M  END
