
 OpenBabel10141417503D

 27 30  0  0  1  0  0  0  0  0999 V2000
    1.0237   -0.1339   -0.1496 F   0  0  0  0  0  0  0  0  0  0  0  0
    2.3564   -0.1648    0.0086 C   0  0  0  0  0  0  0  0  0  0  0  0
    3.0145   -1.3544    0.3790 C   0  0  0  0  0  0  0  0  0  0  0  0
    4.4371   -1.2821    0.5681 C   0  0  0  0  0  0  0  0  0  0  0  0
    5.2343   -2.6986    1.2016 Cl  0  0  0  0  0  0  0  0  0  0  0  0
    5.1745   -0.0914    0.3012 C   0  0  0  0  0  0  0  0  0  0  0  0
    4.4215    1.0587   -0.0444 C   0  0  0  0  0  0  0  0  0  0  0  0
    3.0355    1.0247   -0.1896 C   0  0  0  0  0  0  0  0  0  0  0  0
    5.0898    2.3635   -0.2851 C   0  0  0  0  0  0  0  0  0  0  0  0
    4.4698    3.3484   -0.6538 O   0  0  0  0  0  0  0  0  0  0  0  0
    6.5373    2.4578   -0.0564 C   0  0  0  0  0  0  0  0  0  0  0  0
    7.3369    3.6920   -0.2302 C   0  0  0  0  0  0  0  0  0  0  0  0
    8.4801    3.8079    0.1385 O   0  0  0  0  0  0  0  0  0  0  0  0
    6.6880    4.6585   -0.9180 O   0  0  0  0  0  0  0  0  0  0  0  0
    7.1722    1.3128    0.2404 C   0  0  0  0  0  0  0  0  0  0  0  0
    6.6059    0.0547    0.3431 N   0  0  0  0  0  0  0  0  0  0  0  0
    7.5614   -1.0796    0.2822 C   0  0  0  0  0  0  0  0  0  0  0  0
    8.7988   -1.0206   -0.5944 C   0  0  0  0  0  0  0  0  0  0  0  0
    7.7050   -1.9811   -0.9234 C   0  0  0  0  0  0  0  0  0  0  0  0
    2.3074   -2.5913    0.5267 N   0  0  0  0  0  0  0  0  0  0  0  0
    1.1340   -2.7571   -0.3605 C   0  0  0  0  0  0  0  0  0  0  0  0
    0.9866   -4.2113   -0.7921 C   0  0  0  0  0  0  0  0  0  0  0  0
    0.2694   -5.1340    0.1894 C   0  0  0  0  0  0  0  0  0  0  0  0
    0.4715   -4.9109    1.6883 C   0  0  0  0  0  0  0  0  0  0  0  0
    1.8496   -4.4396    2.1713 C   0  0  1  0  0  0  0  0  0  0  0  0
    2.9486   -5.2427    1.6175 N   0  0  0  0  0  0  0  0  0  0  0  0
    2.0410   -2.9111    1.9526 C   0  0  0  0  0  0  0  0  0  0  0  0
  1  2  1  0  0  0  0
  2  3  2  0  0  0  0
  2  8  1  0  0  0  0
  3  4  1  0  0  0  0
  3 20  1  0  0  0  0
  4  5  1  0  0  0  0
  4  6  2  0  0  0  0
  6  7  1  0  0  0  0
  6 16  1  0  0  0  0
  7  8  2  0  0  0  0
  7  9  1  0  0  0  0
  9 10  2  0  0  0  0
  9 11  1  0  0  0  0
 11 12  1  0  0  0  0
 11 15  2  0  0  0  0
 12 13  2  0  0  0  0
 12 14  1  0  0  0  0
 15 16  1  0  0  0  0
 16 17  1  0  0  0  0
 17 18  1  0  0  0  0
 17 19  1  0  0  0  0
 18 19  1  0  0  0  0
 20 21  1  0  0  0  0
 20 27  1  0  0  0  0
 21 22  1  0  0  0  0
 22 23  1  0  0  0  0
 23 24  1  0  0  0  0
 24 25  1  0  0  0  0
 25 26  1  6  0  0  0
 25 27  1  0  0  0  0
M  END
