443
 OpenBabel10141417503D

 28 31  0  0  1  0  0  0  0  0999 V2000
    4.8423   -0.3276   -6.7576 F   0  0  0  0  0  0  0  0  0  0  0  0
    1.8957   -5.0362   -5.2323 O   0  0  0  0  0  0  0  0  0  0  0  0
    2.4552    0.5422   -5.5934 O   0  0  0  0  0  0  0  0  0  0  0  0
    3.6728   -4.2377   -8.2098 O   0  0  0  0  0  0  0  0  0  0  0  0
    0.4639   -3.3392   -6.9258 O   0  0  0  0  0  0  0  0  0  0  0  0
    7.8800    2.7227   -1.9138 O   0  0  0  0  0  0  0  0  0  0  0  0
    3.3947   -3.0599   -5.1218 C   0  0  1  0  0  0  0  0  0  0  0  0
    4.8596   -2.9008   -5.5700 C   0  0  2  0  0  0  0  0  0  0  0  0
    5.5706   -1.6651   -4.9847 C   0  0  1  0  0  0  0  0  0  0  0  0
    4.7758   -0.3725   -5.3749 C   0  0  1  0  0  0  0  0  0  0  0  0
    3.0209   -4.4062   -5.8404 C   0  0  1  0  0  0  0  0  0  0  0  0
    5.4728   -4.2899   -5.3695 C   0  0  0  0  0  0  0  0  0  0  0  0
    2.6368   -1.8051   -5.5682 C   0  0  0  0  0  0  0  0  0  0  0  0
    4.2846   -5.2758   -5.5154 C   0  0  2  0  0  0  0  0  0  0  0  0
    3.2553   -0.5049   -5.0332 C   0  0  2  0  0  0  0  0  0  0  0  0
    5.4774    0.9519   -4.8340 C   0  0  1  0  0  0  0  0  0  0  0  0
    7.0320   -1.6181   -5.5012 C   0  0  0  0  0  0  0  0  0  0  0  0
    3.2325   -3.2053   -3.5808 C   0  0  0  0  0  0  0  0  0  0  0  0
    7.5789   -0.2122   -5.7460 C   0  0  0  0  0  0  0  0  0  0  0  0
    6.9983    0.7385   -4.7426 C   0  0  0  0  0  0  0  0  0  0  0  0
    2.7661   -4.2212   -7.3726 C   0  0  0  0  0  0  0  0  0  0  0  0
    4.5792   -6.4542   -6.4378 C   0  0  0  0  0  0  0  0  0  0  0  0
    5.2453    2.1127   -5.8363 C   0  0  0  0  0  0  0  0  0  0  0  0
    4.9508    1.4526   -3.4868 C   0  0  0  0  0  0  0  0  0  0  0  0
    7.7749    1.2933   -3.7934 C   0  0  0  0  0  0  0  0  0  0  0  0
    1.3208   -4.0033   -7.8392 C   0  0  0  0  0  0  0  0  0  0  0  0
    5.7200    1.9940   -2.5297 C   0  0  0  0  0  0  0  0  0  0  0  0
    7.1839    2.0794   -2.6950 C   0  0  0  0  0  0  0  0  0  0  0  0
  4 21  2  0  0  0  0
  5 26  1  0  0  0  0
  6 28  2  0  0  0  0
  7  8  1  0  0  0  0
  7 11  1  0  0  0  0
  7 13  1  0  0  0  0
  7 18  1  6  0  0  0
  8  9  1  0  0  0  0
  8 12  1  6  0  0  0
  9 10  1  0  0  0  0
  9 17  1  1  0  0  0
 10 15  1  0  0  0  0
 10 16  1  0  0  0  0
 10  1  1  1  0  0  0
 11 14  1  0  0  0  0
 11 21  1  6  0  0  0
 11  2  1  0  0  0  0
 12 14  1  0  0  0  0
 13 15  1  0  0  0  0
 14 22  1  6  0  0  0
 15  3  1  6  0  0  0
 16 20  1  0  0  0  0
 16 24  1  0  0  0  0
 16 23  1  6  0  0  0
 17 19  1  0  0  0  0
 19 20  1  0  0  0  0
 20 25  2  0  0  0  0
 21 26  1  0  0  0  0
 24 27  2  0  0  0  0
 25 28  1  0  0  0  0
 27 28  1  0  0  0  0
M  END
