272
 OpenBabel10141417493D

  8  8  0  0  0  0  0  0  0  0999 V2000
   -1.0695    0.0376    1.0727 N   0  0  0  0  0  0  0  0  0  0  0  0
   -2.8690    2.2068    1.4198 N   0  0  0  0  0  0  0  0  0  0  0  0
   -0.5171   -1.1835    1.1793 N   0  0  0  0  0  0  0  0  0  0  0  0
   -0.9184    2.2263   -0.1491 C   0  0  0  0  0  0  0  0  0  0  0  0
   -0.4715    0.8278    0.1231 C   0  0  0  0  0  0  0  0  0  0  0  0
   -2.4284    2.4515    0.0385 C   0  0  0  0  0  0  0  0  0  0  0  0
    0.5390    0.0617   -0.4115 C   0  0  0  0  0  0  0  0  0  0  0  0
    0.4612   -1.1660    0.2716 C   0  0  0  0  0  0  0  0  0  0  0  0
  1  3  1  0  0  0  0
  1  5  1  0  0  0  0
  2  6  1  0  0  0  0
  3  8  2  0  0  0  0
  4  5  1  0  0  0  0
  4  6  1  0  0  0  0
  5  7  2  0  0  0  0
  7  8  1  0  0  0  0
M  END
