195
 OpenBabel10141417483D

 22 23  0  0  1  0  0  0  0  0999 V2000
    1.3054   -2.3690    3.7129 O   0  0  0  0  0  0  0  0  0  0  0  0
    7.1184   -0.0415    2.2083 O   0  0  0  0  0  0  0  0  0  0  0  0
    8.9769    2.0900    1.9814 O   0  0  0  0  0  0  0  0  0  0  0  0
   11.4741    1.8344    3.5392 N   0  0  0  0  0  0  0  0  0  0  0  0
    1.5878   -3.1330    5.9841 C   0  0  0  0  0  0  0  0  0  0  0  0
    1.2926   -4.0198    7.1682 C   0  0  0  0  0  0  0  0  0  0  0  0
    0.8793   -2.5761    7.1952 C   0  0  0  0  0  0  0  0  0  0  0  0
    0.8443   -3.2984    4.6938 C   0  0  0  0  0  0  0  0  0  0  0  0
    0.9788   -1.0131    4.0159 C   0  0  0  0  0  0  0  0  0  0  0  0
    1.4754   -0.0935    2.8969 C   0  0  0  0  0  0  0  0  0  0  0  0
    2.9738   -0.0943    2.7299 C   0  0  0  0  0  0  0  0  0  0  0  0
    9.2656    0.9239    2.7742 C   0  0  3  0  0  0  0  0  0  0  0  0
   10.1649    1.3198    3.9640 C   0  0  0  0  0  0  0  0  0  0  0  0
   12.3247    2.2436    4.6674 C   0  0  0  0  0  0  0  0  0  0  0  0
    7.9443    0.3572    3.3121 C   0  0  0  0  0  0  0  0  0  0  0  0
    3.7366    0.8721    3.3907 C   0  0  0  0  0  0  0  0  0  0  0  0
    3.6205   -1.0169    1.9083 C   0  0  0  0  0  0  0  0  0  0  0  0
    5.7687   -0.0348    2.4365 C   0  0  0  0  0  0  0  0  0  0  0  0
   13.6632    2.7508    4.1250 C   0  0  0  0  0  0  0  0  0  0  0  0
   11.6784    3.3141    5.5534 C   0  0  0  0  0  0  0  0  0  0  0  0
    5.1177    0.9050    3.2391 C   0  0  0  0  0  0  0  0  0  0  0  0
    5.0106   -0.9819    1.7528 C   0  0  0  0  0  0  0  0  0  0  0  0
  1  8  1  0  0  0  0
  1  9  1  0  0  0  0
  2 15  1  0  0  0  0
  2 18  1  0  0  0  0
  3 12  1  0  0  0  0
  4 13  1  0  0  0  0
  4 14  1  0  0  0  0
  5  6  1  0  0  0  0
  5  7  1  0  0  0  0
  5  8  1  0  0  0  0
  6  7  1  0  0  0  0
  9 10  1  0  0  0  0
 10 11  1  0  0  0  0
 11 16  2  0  0  0  0
 11 17  1  0  0  0  0
 12 13  1  0  0  0  0
 12 15  1  0  0  0  0
 14 19  1  0  0  0  0
 14 20  1  0  0  0  0
 16 21  1  0  0  0  0
 17 22  2  0  0  0  0
 18 21  2  0  0  0  0
 18 22  1  0  0  0  0
M  END
