2368
 OpenBabel10141417503D

 13 13  0  0  0  0  0  0  0  0999 V2000
    1.4498   -0.3929   -0.2504 N   0  0  0  0  0  0  0  0  0  0  0  0
    3.5218   -0.0101    0.6018 N   0  0  0  0  0  0  0  0  0  0  0  0
    3.2587   -1.2255   -1.4145 N   0  0  0  0  0  0  0  0  0  0  0  0
    0.4793   -1.0464   -1.1015 C   0  0  0  0  0  0  0  0  0  0  0  0
   -0.8503   -0.3381   -0.9815 C   0  0  0  0  0  0  0  0  0  0  0  0
   -1.1256    0.7681   -1.7998 C   0  0  0  0  0  0  0  0  0  0  0  0
   -1.8207   -0.7573   -0.0602 C   0  0  0  0  0  0  0  0  0  0  0  0
    2.7924   -0.5823   -0.4062 C   0  0  0  0  0  0  0  0  0  0  0  0
   -2.3644    1.4066   -1.7393 C   0  0  0  0  0  0  0  0  0  0  0  0
   -3.0605   -0.1153   -0.0001 C   0  0  0  0  0  0  0  0  0  0  0  0
   -3.3358    0.9573   -0.8477 C   0  0  0  0  0  0  0  0  0  0  0  0
    3.1273    1.1852    1.3176 C   0  0  0  0  0  0  0  0  0  0  0  0
    4.6935   -1.3849   -1.5810 C   0  0  0  0  0  0  0  0  0  0  0  0
  1  4  1  0  0  0  0
  1  8  1  0  0  0  0
  2  8  1  0  0  0  0
  2 12  1  0  0  0  0
  3  8  2  0  0  0  0
  3 13  1  0  0  0  0
  4  5  1  0  0  0  0
  5  6  2  0  0  0  0
  5  7  1  0  0  0  0
  6  9  1  0  0  0  0
  7 10  2  0  0  0  0
  9 11  2  0  0  0  0
 10 11  1  0  0  0  0
M  END
