1019
 OpenBabel10141417503D

 11 10  0  0  1  0  0  0  0  0999 V2000
    3.6554    0.7790    1.8505 O   0  0  0  0  0  0  0  0  0  0  0  0
    2.0002    1.5410    3.2241 O   0  0  0  0  0  0  0  0  0  0  0  0
    3.7230   -2.0319    3.3788 N   0  3  0  0  0  0  0  0  0  0  0  0
    3.7265    2.8670    2.5750 N   0  0  0  0  0  0  0  0  0  0  0  0
    2.5215   -1.3422    2.6473 C   0  0  0  0  0  0  0  0  0  0  0  0
    2.9037   -0.3973    1.4736 C   0  0  3  0  0  0  0  0  0  0  0  0
    4.5701   -2.8616    2.4252 C   0  0  0  0  0  0  0  0  0  0  0  0
    4.6068   -1.0173    4.0940 C   0  0  0  0  0  0  0  0  0  0  0  0
    3.1499   -2.9729    4.4498 C   0  0  0  0  0  0  0  0  0  0  0  0
    1.6893    0.0340    0.6395 C   0  0  0  0  0  0  0  0  0  0  0  0
    3.0320    1.7099    2.6098 C   0  0  0  0  0  0  0  0  0  0  0  0
  1  6  1  0  0  0  0
  1 11  1  0  0  0  0
  2 11  2  0  0  0  0
  3  5  1  0  0  0  0
  3  7  1  0  0  0  0
  3  8  1  0  0  0  0
  3  9  1  0  0  0  0
  4 11  1  0  0  0  0
  5  6  1  0  0  0  0
  6 10  1  0  0  0  0
M  CHG  1   3   1
M  END
