1295
 OpenBabel10141417483D

 25 26  0  0  1  0  0  0  0  0999 V2000
    0.5573    1.9245   -1.6405 O   0  0  0  0  0  0  0  0  0  0  0  0
   -0.9643    0.6580    1.4688 O   0  0  0  0  0  0  0  0  0  0  0  0
   -9.1186    5.9407   -1.1226 O   0  0  0  0  0  0  0  0  0  0  0  0
   -8.3268    8.2632    0.2956 O   0  0  0  0  0  0  0  0  0  0  0  0
   -3.2136    2.2342    0.4670 N   0  0  0  0  0  0  0  0  0  0  0  0
   -1.8086    2.4483    0.0507 C   0  0  0  0  0  0  0  0  0  0  0  0
   -0.9692    1.1615    0.1238 C   0  0  3  0  0  0  0  0  0  0  0  0
   -3.9456    3.5069    0.3429 C   0  0  0  0  0  0  0  0  0  0  0  0
   -5.3882    3.3819    0.8228 C   0  0  0  0  0  0  0  0  0  0  0  0
   -6.1586    4.6857    0.6693 C   0  0  0  0  0  0  0  0  0  0  0  0
    0.4863    1.4033   -0.3068 C   0  0  0  0  0  0  0  0  0  0  0  0
   -7.2847    4.7235   -0.1497 C   0  0  0  0  0  0  0  0  0  0  0  0
   -5.7749    5.8612    1.3408 C   0  0  0  0  0  0  0  0  0  0  0  0
   -8.0156    5.8987   -0.3148 C   0  0  0  0  0  0  0  0  0  0  0  0
   -6.5152    7.0468    1.1919 C   0  0  0  0  0  0  0  0  0  0  0  0
   -7.6590    7.0647    0.3769 C   0  0  0  0  0  0  0  0  0  0  0  0
    1.8259    2.1438   -2.1191 C   0  0  0  0  0  0  0  0  0  0  0  0
    1.9592    3.1279   -3.1061 C   0  0  0  0  0  0  0  0  0  0  0  0
    3.2127    3.4022   -3.6803 C   0  0  0  0  0  0  0  0  0  0  0  0
    2.9544    1.4267   -1.7186 C   0  0  0  0  0  0  0  0  0  0  0  0
    4.3336    2.6855   -3.2504 C   0  0  0  0  0  0  0  0  0  0  0  0
    4.2044    1.6971   -2.2773 C   0  0  0  0  0  0  0  0  0  0  0  0
    3.3753    4.4924   -4.7000 C   0  0  0  0  0  0  0  0  0  0  0  0
   -9.1495    5.1366   -2.2949 C   0  0  0  0  0  0  0  0  0  0  0  0
   -9.7413    8.1894    0.0909 C   0  0  0  0  0  0  0  0  0  0  0  0
  1 11  1  0  0  0  0
  1 17  1  0  0  0  0
  2  7  1  0  0  0  0
  3 14  1  0  0  0  0
  3 24  1  0  0  0  0
  4 16  1  0  0  0  0
  4 25  1  0  0  0  0
  5  6  1  0  0  0  0
  5  8  1  0  0  0  0
  6  7  1  0  0  0  0
  7 11  1  0  0  0  0
  8  9  1  0  0  0  0
  9 10  1  0  0  0  0
 10 12  2  0  0  0  0
 10 13  1  0  0  0  0
 12 14  1  0  0  0  0
 13 15  2  0  0  0  0
 14 16  2  0  0  0  0
 15 16  1  0  0  0  0
 17 18  1  0  0  0  0
 17 20  2  0  0  0  0
 18 19  2  0  0  0  0
 19 21  1  0  0  0  0
 19 23  1  0  0  0  0
 20 22  1  0  0  0  0
 21 22  2  0  0  0  0
M  END
