1393
 OpenBabel10141417533D

 25 26  0  0  0  0  0  0  0  0999 V2000
    7.3956  -10.9563    1.4553 Cl  0  0  0  0  0  0  0  0  0  0  0  0
   13.7826   -4.0502   -1.8771 O   0  0  0  0  0  0  0  0  0  0  0  0
   15.9401   -2.6669   -0.2587 O   0  0  0  0  0  0  0  0  0  0  0  0
   15.6168   -4.3723    1.1223 O   0  0  0  0  0  0  0  0  0  0  0  0
    6.5341   -4.3315    2.2420 O   0  0  0  0  0  0  0  0  0  0  0  0
    7.5472   -4.3679    0.1760 N   0  0  0  0  0  0  0  0  0  0  0  0
   14.9149   -4.6498   -1.2338 C   0  0  0  0  0  0  0  0  0  0  0  0
    8.8882   -2.3054    0.5156 C   0  0  0  0  0  0  0  0  0  0  0  0
   10.1620   -2.8177   -0.1284 C   0  0  0  0  0  0  0  0  0  0  0  0
    7.5937   -2.9306   -0.0137 C   0  0  0  0  0  0  0  0  0  0  0  0
   12.6374   -3.6973   -1.2214 C   0  0  0  0  0  0  0  0  0  0  0  0
   14.6376   -6.1212   -0.8751 C   0  0  0  0  0  0  0  0  0  0  0  0
   16.0215   -4.6801   -2.3157 C   0  0  0  0  0  0  0  0  0  0  0  0
   10.4228   -2.6835   -1.4957 C   0  0  0  0  0  0  0  0  0  0  0  0
   11.1450   -3.4133    0.6714 C   0  0  0  0  0  0  0  0  0  0  0  0
   11.6480   -3.1192   -2.0302 C   0  0  0  0  0  0  0  0  0  0  0  0
   12.3644   -3.8520    0.1324 C   0  0  0  0  0  0  0  0  0  0  0  0
   15.5107   -3.9200   -0.0096 C   0  0  0  0  0  0  0  0  0  0  0  0
    7.0377   -4.9542    1.3245 C   0  0  0  0  0  0  0  0  0  0  0  0
    7.1294   -6.4461    1.3734 C   0  0  0  0  0  0  0  0  0  0  0  0
    8.1813   -7.1103    0.7344 C   0  0  0  0  0  0  0  0  0  0  0  0
    6.1681   -7.1926    2.0765 C   0  0  0  0  0  0  0  0  0  0  0  0
    8.2599   -8.5030    0.7593 C   0  0  0  0  0  0  0  0  0  0  0  0
    6.2504   -8.5927    2.1022 C   0  0  0  0  0  0  0  0  0  0  0  0
    7.2930   -9.2394    1.4386 C   0  0  0  0  0  0  0  0  0  0  0  0
  1 25  1  0  0  0  0
  2  7  1  0  0  0  0
  2 11  1  0  0  0  0
  3 18  1  0  0  0  0
  4 18  2  0  0  0  0
  5 19  2  0  0  0  0
  6 10  1  0  0  0  0
  6 19  1  0  0  0  0
  7 12  1  0  0  0  0
  7 13  1  0  0  0  0
  7 18  1  0  0  0  0
  8  9  1  0  0  0  0
  8 10  1  0  0  0  0
  9 14  2  0  0  0  0
  9 15  1  0  0  0  0
 11 16  2  0  0  0  0
 11 17  1  0  0  0  0
 14 16  1  0  0  0  0
 15 17  2  0  0  0  0
 19 20  1  0  0  0  0
 20 21  2  0  0  0  0
 20 22  1  0  0  0  0
 21 23  1  0  0  0  0
 22 24  2  0  0  0  0
 23 25  2  0  0  0  0
 24 25  1  0  0  0  0
M  END
