2375
 OpenBabel10141417483D

 29 30  0  0  1  0  0  0  0  0999 V2000
   -1.4353    3.3120    2.7591 S   0  0  0  0  0  0  0  0  0  0  0  0
    2.4003    6.0103    6.2894 F   0  0  0  0  0  0  0  0  0  0  0  0
   -6.0472    4.6825   -1.7934 F   0  0  0  0  0  0  0  0  0  0  0  0
   -5.6273    6.0373   -3.4350 F   0  0  0  0  0  0  0  0  0  0  0  0
   -6.5209    4.0862   -3.8213 F   0  0  0  0  0  0  0  0  0  0  0  0
   -0.8188    0.1635    0.3176 O   0  0  0  0  0  0  0  0  0  0  0  0
   -2.3821    2.7523    3.7017 O   0  0  0  0  0  0  0  0  0  0  0  0
   -1.8181    4.3592    1.8336 O   0  0  0  0  0  0  0  0  0  0  0  0
   -3.5456    2.3726    0.4336 O   0  0  0  0  0  0  0  0  0  0  0  0
   -1.8475    2.1166   -1.1494 N   0  0  0  0  0  0  0  0  0  0  0  0
   -4.7017    4.9619   -6.6361 N   0  0  0  0  0  0  0  0  0  0  0  0
   -1.6121    1.1053    1.0781 C   0  0  3  0  0  0  0  0  0  0  0  0
   -0.6378    2.0030    1.8451 C   0  0  0  0  0  0  0  0  0  0  0  0
   -2.5494    0.2815    1.9721 C   0  0  0  0  0  0  0  0  0  0  0  0
   -2.4529    1.9354    0.0895 C   0  0  0  0  0  0  0  0  0  0  0  0
   -0.1379    3.9996    3.7688 C   0  0  0  0  0  0  0  0  0  0  0  0
   -2.3846    2.8516   -2.2278 C   0  0  0  0  0  0  0  0  0  0  0  0
    0.6151    5.0687    3.2753 C   0  0  0  0  0  0  0  0  0  0  0  0
   -0.0197    3.5873    5.1032 C   0  0  0  0  0  0  0  0  0  0  0  0
   -3.5804    3.5627   -2.1226 C   0  0  0  0  0  0  0  0  0  0  0  0
    1.4895    5.7359    4.1315 C   0  0  0  0  0  0  0  0  0  0  0  0
    0.8547    4.2631    5.9523 C   0  0  0  0  0  0  0  0  0  0  0  0
   -1.7301    2.8248   -3.4617 C   0  0  0  0  0  0  0  0  0  0  0  0
   -4.2123    4.1226   -3.2414 C   0  0  0  0  0  0  0  0  0  0  0  0
    1.5930    5.3356    5.4615 C   0  0  0  0  0  0  0  0  0  0  0  0
   -3.5743    4.0413   -4.4812 C   0  0  0  0  0  0  0  0  0  0  0  0
   -2.3198    3.4193   -4.5855 C   0  0  0  0  0  0  0  0  0  0  0  0
   -5.5833    4.7289   -3.0740 C   0  0  0  0  0  0  0  0  0  0  0  0
   -4.1897    4.5530   -5.6617 C   0  0  0  0  0  0  0  0  0  0  0  0
  1  7  2  0  0  0  0
  1  8  2  0  0  0  0
  1 13  1  0  0  0  0
  1 16  1  0  0  0  0
  2 25  1  0  0  0  0
  3 28  1  0  0  0  0
  4 28  1  0  0  0  0
  5 28  1  0  0  0  0
  6 12  1  0  0  0  0
  9 15  2  0  0  0  0
 10 15  1  0  0  0  0
 10 17  1  0  0  0  0
 11 29  3  0  0  0  0
 12 13  1  0  0  0  0
 12 14  1  0  0  0  0
 12 15  1  0  0  0  0
 16 18  2  0  0  0  0
 16 19  1  0  0  0  0
 17 20  2  0  0  0  0
 17 23  1  0  0  0  0
 18 21  1  0  0  0  0
 19 22  2  0  0  0  0
 20 24  1  0  0  0  0
 21 25  2  0  0  0  0
 22 25  1  0  0  0  0
 23 27  2  0  0  0  0
 24 26  2  0  0  0  0
 24 28  1  0  0  0  0
 26 27  1  0  0  0  0
 26 29  1  0  0  0  0
M  END
