
 OpenBabel10141417503D

 24 27  0  0  1  0  0  0  0  0999 V2000
   -2.2832    0.5020    2.7577 N   0  0  0  0  0  0  0  0  0  0  0  0
   -2.5642    2.6550    3.2395 N   0  0  0  0  0  0  0  0  0  0  0  0
   -2.5746   -0.9076    2.4232 C   0  0  3  0  0  0  0  0  0  0  0  0
   -2.0763   -1.8833    3.5012 C   0  0  0  0  0  0  0  0  0  0  0  0
   -4.0282   -1.1271    1.9829 C   0  0  0  0  0  0  0  0  0  0  0  0
   -1.9624   -1.5307    4.8535 C   0  0  0  0  0  0  0  0  0  0  0  0
   -1.7327   -3.1977    3.1497 C   0  0  0  0  0  0  0  0  0  0  0  0
   -1.1684   -3.7739    5.4754 C   0  0  0  0  0  0  0  0  0  0  0  0
   -4.3902   -0.9468    0.6330 C   0  0  0  0  0  0  0  0  0  0  0  0
   -5.0439   -1.4642    2.8956 C   0  0  0  0  0  0  0  0  0  0  0  0
   -1.5173   -2.4549    5.8131 C   0  0  0  0  0  0  0  0  0  0  0  0
   -1.2844   -4.1170    4.1161 C   0  0  0  0  0  0  0  0  0  0  0  0
   -1.0256    1.0437    2.9140 C   0  0  0  0  0  0  0  0  0  0  0  0
   -3.1700    1.5235    2.9645 C   0  0  0  0  0  0  0  0  0  0  0  0
   -0.7113   -4.7515    6.5045 C   0  0  0  0  0  0  0  0  0  0  0  0
   -5.7126   -1.1240    0.2104 C   0  0  0  0  0  0  0  0  0  0  0  0
   -6.3641   -1.6449    2.4688 C   0  0  0  0  0  0  0  0  0  0  0  0
   -1.2306    2.3736    3.2133 C   0  0  0  0  0  0  0  0  0  0  0  0
   -6.6975   -1.4802    1.1273 C   0  0  0  0  0  0  0  0  0  0  0  0
   -0.0107   -4.3426    7.6573 C   0  0  0  0  0  0  0  0  0  0  0  0
   -0.9647   -6.1322    6.3823 C   0  0  0  0  0  0  0  0  0  0  0  0
    0.4066   -5.2571    8.6343 C   0  0  0  0  0  0  0  0  0  0  0  0
   -0.5404   -7.0515    7.3522 C   0  0  0  0  0  0  0  0  0  0  0  0
    0.1433   -6.6129    8.4802 C   0  0  0  0  0  0  0  0  0  0  0  0
  1  3  1  0  0  0  0
  1 13  1  0  0  0  0
  1 14  1  0  0  0  0
  2 14  2  0  0  0  0
  2 18  1  0  0  0  0
  3  4  1  0  0  0  0
  3  5  1  0  0  0  0
  4  6  2  0  0  0  0
  4  7  1  0  0  0  0
  5  9  2  0  0  0  0
  5 10  1  0  0  0  0
  6 11  1  0  0  0  0
  7 12  2  0  0  0  0
  8 11  2  0  0  0  0
  8 12  1  0  0  0  0
  8 15  1  0  0  0  0
  9 16  1  0  0  0  0
 10 17  2  0  0  0  0
 13 18  2  0  0  0  0
 15 20  2  0  0  0  0
 15 21  1  0  0  0  0
 16 19  2  0  0  0  0
 17 19  1  0  0  0  0
 20 22  1  0  0  0  0
 21 23  2  0  0  0  0
 22 24  2  0  0  0  0
 23 24  1  0  0  0  0
M  END
