905
 OpenBabel10141417503D

 30 31  0  0  1  0  0  0  0  0999 V2000
    0.6525    0.2656   -0.1512 O   0  0  0  0  0  0  0  0  0  0  0  0
    1.6894    1.6489    3.0736 O   0  0  0  0  0  0  0  0  0  0  0  0
    4.6429   -1.8828    6.0975 O   0  0  0  0  0  0  0  0  0  0  0  0
   -2.1173   -4.7183   -1.7647 O   0  0  0  0  0  0  0  0  0  0  0  0
   -4.1728   -4.2282   -2.5957 N   0  0  0  0  0  0  0  0  0  0  0  0
    2.8215   -0.6562    0.5517 C   0  0  2  0  0  0  0  0  0  0  0  0
    2.7121   -0.3383    2.0630 C   0  0  2  0  0  0  0  0  0  0  0  0
    2.0537    0.4939   -0.1192 C   0  0  2  0  0  0  0  0  0  0  0  0
    2.6636    1.2064    2.1325 C   0  0  1  0  0  0  0  0  0  0  0  0
    2.3122    1.7230    0.7373 C   0  0  0  0  0  0  0  0  0  0  0  0
    2.2743   -2.0504    0.1815 C   0  0  0  0  0  0  0  0  0  0  0  0
    3.8781   -0.8780    2.8832 C   0  0  0  0  0  0  0  0  0  0  0  0
    2.4004   -2.3330   -1.2987 C   0  0  0  0  0  0  0  0  0  0  0  0
    3.7587   -1.7303    3.9175 C   0  0  0  0  0  0  0  0  0  0  0  0
    4.8965   -2.2698    4.7524 C   0  0  2  0  0  0  0  0  0  0  0  0
    1.4190   -2.6123   -2.1743 C   0  0  0  0  0  0  0  0  0  0  0  0
    4.9734   -3.8001    4.6645 C   0  0  0  0  0  0  0  0  0  0  0  0
   -0.0439   -2.7557   -1.8734 C   0  0  0  0  0  0  0  0  0  0  0  0
    6.0772   -4.4213    5.5443 C   0  0  0  0  0  0  0  0  0  0  0  0
   -0.9492   -2.3916   -3.0597 C   0  0  0  0  0  0  0  0  0  0  0  0
    6.1821   -5.9385    5.4989 C   0  0  0  0  0  0  0  0  0  0  0  0
   -2.4416   -2.5071   -2.7270 C   0  0  0  0  0  0  0  0  0  0  0  0
    7.1612   -6.5862    6.2733 C   0  0  0  0  0  0  0  0  0  0  0  0
    5.3293   -6.7349    4.7215 C   0  0  0  0  0  0  0  0  0  0  0  0
   -2.8526   -3.9208   -2.3222 C   0  0  0  0  0  0  0  0  0  0  0  0
    7.2730   -7.9821    6.2714 C   0  0  0  0  0  0  0  0  0  0  0  0
    5.4354   -8.1276    4.7255 C   0  0  0  0  0  0  0  0  0  0  0  0
    6.4061   -8.7524    5.5005 C   0  0  0  0  0  0  0  0  0  0  0  0
   -4.6731   -5.5558   -2.3152 C   0  0  0  0  0  0  0  0  0  0  0  0
   -4.4276   -6.5187   -3.4655 C   0  0  0  0  0  0  0  0  0  0  0  0
  4 25  2  0  0  0  0
  5 25  1  0  0  0  0
  5 29  1  0  0  0  0
  6  7  1  0  0  0  0
  6  8  1  0  0  0  0
  6 11  1  1  0  0  0
  7  9  1  0  0  0  0
  7 12  1  1  0  0  0
  8  1  1  1  0  0  0
  8 10  1  0  0  0  0
  9 10  1  0  0  0  0
  9  2  1  1  0  0  0
 11 13  1  0  0  0  0
 12 14  2  0  0  0  0
 13 16  2  0  0  0  0
 14 15  1  0  0  0  0
 15  3  1  1  0  0  0
 15 17  1  0  0  0  0
 16 18  1  0  0  0  0
 17 19  1  0  0  0  0
 18 20  1  0  0  0  0
 19 21  1  0  0  0  0
 20 22  1  0  0  0  0
 21 23  2  0  0  0  0
 21 24  1  0  0  0  0
 22 25  1  0  0  0  0
 23 26  1  0  0  0  0
 24 27  2  0  0  0  0
 26 28  2  0  0  0  0
 27 28  1  0  0  0  0
 29 30  1  0  0  0  0
M  END
