810
 OpenBabel10141417533D

 23 26  0  0  1  0  0  0  0  0999 V2000
    1.6530    2.6673    0.0028 O   0  0  0  0  0  0  0  0  0  0  0  0
    3.2245   -0.1416   -2.8015 N   0  0  0  0  0  0  0  0  0  0  0  0
    3.2018    4.5057   -0.4911 C   0  0  3  0  0  0  0  0  0  0  0  0
    2.4692    5.6636    0.2846 C   0  0  3  0  0  0  0  0  0  0  0  0
    4.1005    5.0968    1.7061 C   0  0  3  0  0  0  0  0  0  0  0  0
    4.2964    4.0905    0.5527 C   0  0  0  0  0  0  0  0  0  0  0  0
    3.6688    6.3574    0.9525 C   0  0  0  0  0  0  0  0  0  0  0  0
    2.3306    3.3285   -1.0709 C   0  0  3  0  0  0  0  0  0  0  0  0
    1.8076    5.1632    1.5492 C   0  0  0  0  0  0  0  0  0  0  0  0
    2.7931    4.7804    2.3888 C   0  0  0  0  0  0  0  0  0  0  0  0
    3.2195    2.2087   -1.7299 C   0  0  0  0  0  0  0  0  0  0  0  0
    1.3187    3.8858   -2.0949 C   0  0  0  0  0  0  0  0  0  0  0  0
    2.4177    0.9693   -2.2269 C   0  0  0  0  0  0  0  0  0  0  0  0
    1.7580    4.5409   -3.2634 C   0  0  0  0  0  0  0  0  0  0  0  0
   -0.0690    3.7197   -1.9335 C   0  0  0  0  0  0  0  0  0  0  0  0
    3.9809    0.2157   -4.0095 C   0  0  0  0  0  0  0  0  0  0  0  0
    2.3887   -1.3245   -3.1086 C   0  0  0  0  0  0  0  0  0  0  0  0
    3.1039    0.5015   -5.2322 C   0  0  0  0  0  0  0  0  0  0  0  0
    1.3978   -1.0951   -4.2556 C   0  0  0  0  0  0  0  0  0  0  0  0
    2.1168   -0.6297   -5.5187 C   0  0  0  0  0  0  0  0  0  0  0  0
    0.8531    4.9664   -4.2432 C   0  0  0  0  0  0  0  0  0  0  0  0
   -0.9732    4.1571   -2.9068 C   0  0  0  0  0  0  0  0  0  0  0  0
   -0.5120    4.7647   -4.0691 C   0  0  0  0  0  0  0  0  0  0  0  0
  1  8  1  0  0  0  0
  2 13  1  0  0  0  0
  2 16  1  0  0  0  0
  2 17  1  0  0  0  0
  3  4  1  0  0  0  0
  3  6  1  0  0  0  0
  3  8  1  0  0  0  0
  4  7  1  0  0  0  0
  4  9  1  0  0  0  0
  5  6  1  0  0  0  0
  5  7  1  0  0  0  0
  5 10  1  0  0  0  0
  8 11  1  0  0  0  0
  8 12  1  0  0  0  0
  9 10  2  0  0  0  0
 11 13  1  0  0  0  0
 12 14  2  0  0  0  0
 12 15  1  0  0  0  0
 14 21  1  0  0  0  0
 15 22  2  0  0  0  0
 16 18  1  0  0  0  0
 17 19  1  0  0  0  0
 18 20  1  0  0  0  0
 19 20  1  0  0  0  0
 21 23  2  0  0  0  0
 22 23  1  0  0  0  0
M  END
