
 OpenBabel10141417483D

 12 13  0  0  0  0  0  0  0  0999 V2000
   -0.0704    0.6186    0.2224 C   0  0  0  0  0  0  0  0  0  0  0  0
    0.0399   -0.7923    0.4248 C   0  0  0  0  0  0  0  0  0  0  0  0
   -1.3325    1.4196    0.3928 C   0  0  0  0  0  0  0  0  0  0  0  0
    1.0939    1.3242   -0.1700 C   0  0  0  0  0  0  0  0  0  0  0  0
   -0.9861   -1.5836    0.7977 O   0  0  0  0  0  0  0  0  0  0  0  0
    1.2779   -1.4237    0.2316 C   0  0  0  0  0  0  0  0  0  0  0  0
   -2.5173    0.8919    0.7622 O   0  0  0  0  0  0  0  0  0  0  0  0
   -1.2955    2.6234    0.1863 O   0  0  0  0  0  0  0  0  0  0  0  0
    2.3111    0.6702   -0.3545 C   0  0  0  0  0  0  0  0  0  0  0  0
   -2.9589   -1.0834    1.1974 Bi  0  0  3  0  0  0  0  0  0  0  0  0
    2.4029   -0.7006   -0.1541 C   0  0  0  0  0  0  0  0  0  0  0  0
   -3.4621   -1.4228   -0.8380 O   0  0  0  0  0  0  0  0  0  0  0  0
  1  2  1  0  0  0  0
  1  3  1  0  0  0  0
  1  4  2  0  0  0  0
  2  5  1  0  0  0  0
  2  6  2  0  0  0  0
  3  7  1  0  0  0  0
  3  8  2  0  0  0  0
  4  9  1  0  0  0  0
  5 10  1  0  0  0  0
  6 11  1  0  0  0  0
  7 10  1  0  0  0  0
  9 11  2  0  0  0  0
 10 12  1  0  0  0  0
M  END
