
 OpenBabel10141417553D

 96101  0  0  1  0  0  0  0  0999 V2000
    7.8627  -16.7438  -14.0799 S   0  0  0  0  0  0  0  0  0  0  0  0
   11.7674  -19.3777  -13.3732 S   0  0  0  0  0  0  0  0  0  0  0  0
   11.9538  -27.0000   -8.5428 S   0  3  0  0  0  0  0  0  0  0  0  0
    9.5842   -1.9117   -5.4739 O   0  0  0  0  0  0  0  0  0  0  0  0
    8.6012   -4.7374   -6.1795 O   0  0  0  0  0  0  0  0  0  0  0  0
    9.3856    0.5331   -5.2048 O   0  0  0  0  0  0  0  0  0  0  0  0
    7.2644   -4.3987   -4.4170 O   0  0  0  0  0  0  0  0  0  0  0  0
    8.7767   -1.2455   -7.8398 O   0  0  0  0  0  0  0  0  0  0  0  0
    9.1279   -2.7982   -9.3877 O   0  0  0  0  0  0  0  0  0  0  0  0
    9.2812    0.3562   -9.3098 O   0  0  0  0  0  0  0  0  0  0  0  0
   11.9729   -0.9826   -7.6472 O   0  0  0  0  0  0  0  0  0  0  0  0
    9.1252    2.8748   -8.1994 O   0  0  0  0  0  0  0  0  0  0  0  0
   11.9056   -5.7711   -6.0530 O   0  0  0  0  0  0  0  0  0  0  0  0
    9.0615    3.3791   -4.7850 O   0  0  0  0  0  0  0  0  0  0  0  0
    5.9127   -8.5137   -3.7972 O   0  0  0  0  0  0  0  0  0  0  0  0
    7.1314    0.7668   -8.4380 O   0  0  0  0  0  0  0  0  0  0  0  0
    7.3904  -11.3494   -3.1143 O   0  0  0  0  0  0  0  0  0  0  0  0
    9.9589   -6.2818   -5.1805 O   0  0  0  0  0  0  0  0  0  0  0  0
    6.1696  -14.3221   -6.3432 O   0  0  0  0  0  0  0  0  0  0  0  0
   10.4031  -16.7493   -6.1883 O   0  0  0  0  0  0  0  0  0  0  0  0
    6.4127  -16.4166   -7.6383 O   0  0  0  0  0  0  0  0  0  0  0  0
   10.9075  -12.3268   -9.4950 O   0  0  0  0  0  0  0  0  0  0  0  0
   15.0176   -7.5188   -6.2442 O   0  0  0  0  0  0  0  0  0  0  0  0
   11.7267  -21.3957   -8.9498 O   0  0  0  0  0  0  0  0  0  0  0  0
    8.3010   -7.4212   -5.9153 N   0  0  0  0  0  0  0  0  0  0  0  0
    4.9854   -4.7075   -6.2280 N   0  0  0  0  0  0  0  0  0  0  0  0
    7.3973   -9.5034   -5.3175 N   0  0  0  0  0  0  0  0  0  0  0  0
    3.5519   -6.3037   -6.6688 N   0  0  0  0  0  0  0  0  0  0  0  0
    7.3240   -0.3941  -10.2997 N   0  0  0  0  0  0  0  0  0  0  0  0
    8.4361  -14.5350   -6.1645 N   0  0  0  0  0  0  0  0  0  0  0  0
    9.4545   -7.6129   -8.5329 N   0  0  0  0  0  0  0  0  0  0  0  0
   10.2154   -6.6091  -10.6598 N   0  0  0  0  0  0  0  0  0  0  0  0
   12.6014   -8.2814  -10.0296 N   0  0  0  0  0  0  0  0  0  0  0  0
   10.6593   -4.3290  -11.0405 N   0  0  0  0  0  0  0  0  0  0  0  0
    7.3994  -15.6362   -9.5332 N   0  0  0  0  0  0  0  0  0  0  0  0
   12.6039  -11.1442  -10.3615 N   0  0  0  0  0  0  0  0  0  0  0  0
   13.3675   -5.7541   -8.8120 N   0  0  0  0  0  0  0  0  0  0  0  0
   14.0545   -5.4929   -6.0002 N   0  0  0  0  0  0  0  0  0  0  0  0
    8.3471  -17.7440  -11.7559 N   0  0  0  0  0  0  0  0  0  0  0  0
   10.6014  -19.7210  -11.1060 N   0  0  0  0  0  0  0  0  0  0  0  0
   12.3943  -22.8938  -10.5697 N   0  0  0  0  0  0  0  0  0  0  0  0
    8.2291   -2.3172   -5.8588 C   0  0  3  0  0  0  0  0  0  0  0  0
    8.0749   -2.3255   -7.3699 C   0  0  3  0  0  0  0  0  0  0  0  0
    8.7274   -3.4648   -8.0970 C   0  0  3  0  0  0  0  0  0  0  0  0
    7.7847   -3.8197   -5.5922 C   0  0  3  0  0  0  0  0  0  0  0  0
   10.1350   -0.5814   -5.7293 C   0  0  3  0  0  0  0  0  0  0  0  0
    9.7367   -4.2494   -6.8186 C   0  0  3  0  0  0  0  0  0  0  0  0
   10.9332   -0.1833   -7.0801 C   0  0  3  0  0  0  0  0  0  0  0  0
   10.2292    0.7574   -8.1536 C   0  0  3  0  0  0  0  0  0  0  0  0
    9.6907    1.9024   -7.3254 C   0  0  3  0  0  0  0  0  0  0  0  0
    8.7579    1.3856   -6.1910 C   0  0  3  0  0  0  0  0  0  0  0  0
   11.0881   -5.4715   -7.1099 C   0  0  0  0  0  0  0  0  0  0  0  0
    6.6704   -5.7821   -4.5687 C   0  0  2  0  0  0  0  0  0  0  0  0
    8.1096    2.5979   -5.5075 C   0  0  0  0  0  0  0  0  0  0  0  0
    7.6343   -7.0949   -4.6273 C   0  0  1  0  0  0  0  0  0  0  0  0
    5.4875   -5.7936   -5.5483 C   0  0  0  0  0  0  0  0  0  0  0  0
    6.8896   -8.4411   -4.5180 C   0  0  0  0  0  0  0  0  0  0  0  0
    7.8896    0.3441   -9.3033 C   0  0  0  0  0  0  0  0  0  0  0  0
    4.5607   -6.7781   -5.8671 C   0  0  0  0  0  0  0  0  0  0  0  0
    6.7787  -10.8574   -5.4458 C   0  0  1  0  0  0  0  0  0  0  0  0
    7.4593  -11.8805   -4.4477 C   0  0  2  0  0  0  0  0  0  0  0  0
    9.4150   -6.6596   -6.1606 C   0  0  0  0  0  0  0  0  0  0  0  0
    3.8239   -5.0413   -6.8407 C   0  0  0  0  0  0  0  0  0  0  0  0
    7.0886  -13.3868   -4.3820 C   0  0  2  0  0  0  0  0  0  0  0  0
    5.2563  -10.6786   -5.5036 C   0  0  0  0  0  0  0  0  0  0  0  0
    9.3187   -6.3570   -8.0372 C   0  0  0  0  0  0  0  0  0  0  0  0
    5.6848  -13.6144   -3.7933 C   0  0  0  0  0  0  0  0  0  0  0  0
    7.1967  -14.1340   -5.7081 C   0  0  0  0  0  0  0  0  0  0  0  0
   10.0121   -5.1371   -8.9328 C   0  0  0  0  0  0  0  0  0  0  0  0
    8.6339  -15.4536   -7.3445 C   0  0  1  0  0  0  0  0  0  0  0  0
   10.0885   -7.6123   -9.7508 C   0  0  0  0  0  0  0  0  0  0  0  0
   10.2337   -5.3848  -10.2689 C   0  0  0  0  0  0  0  0  0  0  0  0
    9.1841  -16.8675   -6.9362 C   0  0  1  0  0  0  0  0  0  0  0  0
   11.1140   -3.6281   -8.4906 C   0  0  0  0  0  0  0  0  0  0  0  0
   11.1501   -8.7299  -10.0300 C   0  0  2  0  0  0  0  0  0  0  0  0
    7.3635  -15.8266   -8.1584 C   0  0  0  0  0  0  0  0  0  0  0  0
   10.8159   -9.9538   -9.1964 C   0  0  0  0  0  0  0  0  0  0  0  0
    9.4187  -17.7923   -8.1500 C   0  0  0  0  0  0  0  0  0  0  0  0
   13.4639   -8.3159   -8.8207 C   0  0  0  0  0  0  0  0  0  0  0  0
    6.2981  -16.2234  -10.2941 C   0  0  0  0  0  0  0  0  0  0  0  0
   11.4222  -11.2282   -9.6994 C   0  0  0  0  0  0  0  0  0  0  0  0
   13.4138   -7.0244   -8.0138 C   0  0  1  0  0  0  0  0  0  0  0  0
    6.3985  -16.1415  -11.8127 C   0  0  0  0  0  0  0  0  0  0  0  0
   14.2380   -6.7334   -6.6880 C   0  0  0  0  0  0  0  0  0  0  0  0
    7.5275  -16.9329  -12.3975 C   0  0  0  0  0  0  0  0  0  0  0  0
    9.4212  -18.0567  -12.5776 C   0  0  0  0  0  0  0  0  0  0  0  0
    9.4056  -17.4136  -13.8023 C   0  0  0  0  0  0  0  0  0  0  0  0
   10.5238  -19.0272  -12.2249 C   0  0  0  0  0  0  0  0  0  0  0  0
   11.5801  -20.7235  -11.2241 C   0  0  0  0  0  0  0  0  0  0  0  0
   12.2108  -20.7344  -12.4572 C   0  0  0  0  0  0  0  0  0  0  0  0
   11.8879  -21.6721  -10.1333 C   0  0  0  0  0  0  0  0  0  0  0  0
   12.6223  -24.0084   -9.6728 C   0  0  0  0  0  0  0  0  0  0  0  0
   13.0984  -25.2700  -10.4038 C   0  0  0  0  0  0  0  0  0  0  0  0
   13.4168  -26.4536   -9.4809 C   0  0  0  0  0  0  0  0  0  0  0  0
   12.7410  -28.4107   -7.7234 C   0  0  0  0  0  0  0  0  0  0  0  0
   12.1407  -25.9021   -7.1086 C   0  0  0  0  0  0  0  0  0  0  0  0
  1 85  1  0  0  0  0
  1 87  1  0  0  0  0
  2 88  1  0  0  0  0
  2 90  1  0  0  0  0
  3 94  1  0  0  0  0
  3 95  1  0  0  0  0
  3 96  1  0  0  0  0
  4 42  1  0  0  0  0
  4 46  1  0  0  0  0
  5 45  1  0  0  0  0
  5 47  1  0  0  0  0
  6 46  1  0  0  0  0
  6 51  1  0  0  0  0
  7 45  1  0  0  0  0
  8 43  1  0  0  0  0
  9 44  1  0  0  0  0
 10 49  1  0  0  0  0
 10 58  1  0  0  0  0
 11 48  1  0  0  0  0
 12 50  1  0  0  0  0
 13 52  1  0  0  0  0
 14 54  1  0  0  0  0
 15 57  2  0  0  0  0
 16 58  2  0  0  0  0
 18 62  2  0  0  0  0
 19 68  2  0  0  0  0
 21 76  2  0  0  0  0
 22 81  2  0  0  0  0
 23 84  2  0  0  0  0
 24 91  2  0  0  0  0
 25 62  1  0  0  0  0
 26 56  1  0  0  0  0
 26 63  1  0  0  0  0
 27 57  1  0  0  0  0
 28 59  1  0  0  0  0
 28 63  2  0  0  0  0
 29 58  1  0  0  0  0
 30 68  1  0  0  0  0
 31 66  1  0  0  0  0
 31 71  2  0  0  0  0
 32 71  1  0  0  0  0
 32 72  2  0  0  0  0
 33 79  1  0  0  0  0
 34 72  1  0  0  0  0
 35 76  1  0  0  0  0
 35 80  1  0  0  0  0
 36 81  1  0  0  0  0
 38 84  1  0  0  0  0
 39 85  2  0  0  0  0
 39 86  1  0  0  0  0
 40 88  2  0  0  0  0
 40 89  1  0  0  0  0
 41 91  1  0  0  0  0
 41 92  1  0  0  0  0
 42 43  1  0  0  0  0
 42 45  1  0  0  0  0
 43 44  1  0  0  0  0
 44 47  1  0  0  0  0
 46 48  1  0  0  0  0
 47 52  1  0  0  0  0
 48 49  1  0  0  0  0
 49 50  1  0  0  0  0
 50 51  1  0  0  0  0
 51 54  1  0  0  0  0
 53  7  1  6  0  0  0
 53 55  1  0  0  0  0
 53 56  1  0  0  0  0
 55 25  1  6  0  0  0
 55 57  1  0  0  0  0
 56 59  2  0  0  0  0
 60 65  1  1  0  0  0
 60 61  1  0  0  0  0
 60 27  1  0  0  0  0
 61 64  1  0  0  0  0
 61 17  1  1  0  0  0
 62 66  1  0  0  0  0
 64 68  1  1  0  0  0
 64 67  1  0  0  0  0
 66 69  2  0  0  0  0
 69 72  1  0  0  0  0
 69 74  1  0  0  0  0
 70 30  1  1  0  0  0
 70 76  1  0  0  0  0
 71 75  1  0  0  0  0
 73 78  1  6  0  0  0
 73 70  1  0  0  0  0
 73 20  1  0  0  0  0
 75 33  1  1  0  0  0
 75 77  1  0  0  0  0
 77 81  1  0  0  0  0
 80 83  1  0  0  0  0
 82 84  1  1  0  0  0
 82 79  1  0  0  0  0
 82 37  1  0  0  0  0
 83 85  1  0  0  0  0
 86 87  2  0  0  0  0
 86 88  1  0  0  0  0
 89 90  2  0  0  0  0
 89 91  1  0  0  0  0
 92 93  1  0  0  0  0
 93 94  1  0  0  0  0
M  CHG  1   3   1
M  END
