
 OpenBabel10141417513D

 37 39  0  0  1  0  0  0  0  0999 V2000
    0.9505    0.3758    0.0413 C   0  0  1  0  0  0  0  0  0  0  0  0
   -0.0066   -0.6772    0.4066 C   0  0  0  0  0  0  0  0  0  0  0  0
   -1.3105   -0.0596    0.3615 N   0  0  0  0  0  0  0  0  0  0  0  0
   -1.2058    1.4226    0.4866 C   0  0  1  0  0  0  0  0  0  0  0  0
    0.2831    1.7037    0.1667 C   0  0  1  0  0  0  0  0  0  0  0  0
    1.5202    1.3604    1.0196 C   0  0  0  0  0  0  0  0  0  0  0  0
    1.3901    1.1370    2.5019 C   0  0  0  0  0  0  0  0  0  0  0  0
    2.8847    1.8652    0.6100 C   0  0  0  0  0  0  0  0  0  0  0  0
   -2.4864   -0.7640    0.5998 C   0  0  0  0  0  0  0  0  0  0  0  0
   -2.1189    2.3704   -0.3757 C   0  0  0  0  0  0  0  0  0  0  0  0
   -3.3226    2.7154    0.2128 N   0  0  0  0  0  0  0  0  0  0  0  0
   -4.2409    3.7098   -0.3848 C   0  0  3  0  0  0  0  0  0  0  0  0
   -5.2080    2.9724   -1.3037 C   0  0  0  0  0  0  0  0  0  0  0  0
   -4.7699    2.8704   -2.7676 C   0  0  0  0  0  0  0  0  0  0  0  0
   -4.5113    1.5823   -3.1852 N   0  0  0  0  0  0  0  0  0  0  0  0
   -4.6642    3.8476   -3.4625 O   0  0  0  0  0  0  0  0  0  0  0  0
   -6.2037    2.3592   -0.9343 O   0  0  0  0  0  0  0  0  0  0  0  0
   -1.7738    2.8536   -1.4531 O   0  0  0  0  0  0  0  0  0  0  0  0
   -3.5602   -0.1473    0.6093 O   0  0  0  0  0  0  0  0  0  0  0  0
   -2.4419   -2.3235    1.0221 C   0  0  1  0  0  0  0  0  0  0  0  0
   -1.2858   -3.0637    0.4944 N   0  0  0  0  0  0  0  0  0  0  0  0
   -1.2978   -3.7895   -0.6666 C   0  0  0  0  0  0  0  0  0  0  0  0
   -0.0265   -4.1862   -1.0222 N   0  0  0  0  0  0  0  0  0  0  0  0
    0.3258   -5.1158   -2.1188 C   0  0  0  0  0  0  0  0  0  0  0  0
    0.2505   -6.5598   -1.5961 C   0  0  0  0  0  0  0  0  0  0  0  0
   -0.5958   -4.9638   -3.3364 C   0  0  0  0  0  0  0  0  0  0  0  0
    1.7589   -4.8219   -2.6239 C   0  0  0  0  0  0  0  0  0  0  0  0
   -2.5681   -2.5694    2.5808 C   0  0  0  0  0  0  0  0  0  0  0  0
   -2.5307   -4.0831    2.9303 C   0  0  0  0  0  0  0  0  0  0  0  0
   -2.3203   -4.0086   -1.3003 O   0  0  0  0  0  0  0  0  0  0  0  0
   -4.9422    4.4487    0.7743 C   0  0  0  0  0  0  0  0  0  0  0  0
   -5.9215    5.5350    0.3339 C   0  0  0  0  0  0  0  0  0  0  0  0
   -6.5693    6.3379    1.5060 C   0  0  0  0  0  0  0  0  0  0  0  0
   -7.3747    5.1235   -0.0420 C   0  0  0  0  0  0  0  0  0  0  0  0
   -7.8564    6.4065    0.6624 C   0  0  0  0  0  0  0  0  0  0  0  0
   -1.4362   -1.9260    3.4099 C   0  0  0  0  0  0  0  0  0  0  0  0
   -3.9332   -2.0561    3.0760 C   0  0  0  0  0  0  0  0  0  0  0  0
  1  2  1  1  0  0  0
  1  5  1  0  0  0  0
  1  6  1  0  0  0  0
  2  3  1  0  0  0  0
  3  4  1  0  0  0  0
  3  9  1  0  0  0  0
  4  5  1  0  0  0  0
  4 10  1  6  0  0  0
  5  6  1  1  0  0  0
  6  7  1  0  0  0  0
  6  8  1  0  0  0  0
  9 19  2  0  0  0  0
 10 11  1  0  0  0  0
 10 18  2  0  0  0  0
 11 12  1  0  0  0  0
 12 13  1  0  0  0  0
 12 31  1  0  0  0  0
 13 14  1  0  0  0  0
 13 17  2  0  0  0  0
 14 15  1  0  0  0  0
 14 16  2  0  0  0  0
 20  9  1  1  0  0  0
 20 21  1  0  0  0  0
 20 28  1  0  0  0  0
 21 22  1  0  0  0  0
 22 23  1  0  0  0  0
 22 30  2  0  0  0  0
 23 24  1  0  0  0  0
 24 25  1  0  0  0  0
 24 26  1  0  0  0  0
 24 27  1  0  0  0  0
 28 29  1  0  0  0  0
 28 36  1  0  0  0  0
 28 37  1  0  0  0  0
 31 32  1  0  0  0  0
 32 33  1  0  0  0  0
 32 34  1  0  0  0  0
 33 35  1  0  0  0  0
 34 35  1  0  0  0  0
M  END
