44112
 OpenBabel10141417513D

 28 30  0  0  1  0  0  0  0  0999 V2000
    0.6723    0.0239   -0.1909 O   0  0  0  0  0  0  0  0  0  0  0  0
   -1.9801    0.9776    0.0895 O   0  0  0  0  0  0  0  0  0  0  0  0
    2.3833   -0.9095    1.0206 O   0  0  0  0  0  0  0  0  0  0  0  0
    2.0534    2.6401    0.0169 N   0  0  0  0  0  0  0  0  0  0  0  0
   -5.4803   -0.6294   -2.5421 N   0  0  0  0  0  0  0  0  0  0  0  0
    2.3441    4.0201   -0.4365 C   0  0  0  0  0  0  0  0  0  0  0  0
    0.6498    2.3959    0.4141 C   0  0  0  0  0  0  0  0  0  0  0  0
    0.3677    0.9511    0.8725 C   0  0  3  0  0  0  0  0  0  0  0  0
    3.8310    4.1127   -0.8466 C   0  0  0  0  0  0  0  0  0  0  0  0
    1.4929    4.4118   -1.6570 C   0  0  0  0  0  0  0  0  0  0  0  0
    2.1048    5.0304    0.6989 C   0  0  0  0  0  0  0  0  0  0  0  0
   -1.1232    0.7333    1.2268 C   0  0  0  0  0  0  0  0  0  0  0  0
   -3.8530    0.1387   -1.2039 C   0  0  0  0  0  0  0  0  0  0  0  0
   -3.1707    0.2768    0.0410 C   0  0  0  0  0  0  0  0  0  0  0  0
   -5.0332   -0.6103   -1.2438 C   0  0  0  0  0  0  0  0  0  0  0  0
   -3.6354    0.5890   -2.5509 C   0  0  0  0  0  0  0  0  0  0  0  0
   -4.6460    0.0885   -3.3560 C   0  0  0  0  0  0  0  0  0  0  0  0
   -3.7608   -0.3140    1.1766 C   0  0  0  0  0  0  0  0  0  0  0  0
   -5.5978   -1.2178   -0.1217 C   0  0  0  0  0  0  0  0  0  0  0  0
    1.6161   -0.9103    0.0915 C   0  0  0  0  0  0  0  0  0  0  0  0
   -4.9416   -1.0532    1.0927 C   0  0  0  0  0  0  0  0  0  0  0  0
   -4.9212    0.1896   -4.8136 C   0  0  0  0  0  0  0  0  0  0  0  0
    1.4641   -2.0535   -0.8388 C   0  0  0  0  0  0  0  0  0  0  0  0
    0.9533   -1.8978   -2.1303 C   0  0  0  0  0  0  0  0  0  0  0  0
    1.8231   -3.3246   -0.3733 C   0  0  0  0  0  0  0  0  0  0  0  0
    0.8206   -3.0111   -2.9616 C   0  0  0  0  0  0  0  0  0  0  0  0
    1.6826   -4.4363   -1.2062 C   0  0  0  0  0  0  0  0  0  0  0  0
    1.1864   -4.2763   -2.4989 C   0  0  0  0  0  0  0  0  0  0  0  0
  1  8  1  0  0  0  0
  1 20  1  0  0  0  0
  2 12  1  0  0  0  0
  2 14  1  0  0  0  0
  3 20  2  0  0  0  0
  4  6  1  0  0  0  0
  4  7  1  0  0  0  0
  5 15  1  0  0  0  0
  5 17  1  0  0  0  0
  6  9  1  0  0  0  0
  6 10  1  0  0  0  0
  6 11  1  0  0  0  0
  7  8  1  0  0  0  0
  8 12  1  0  0  0  0
 13 14  1  0  0  0  0
 13 15  2  0  0  0  0
 13 16  1  0  0  0  0
 14 18  2  0  0  0  0
 15 19  1  0  0  0  0
 16 17  2  0  0  0  0
 17 22  1  0  0  0  0
 18 21  1  0  0  0  0
 19 21  2  0  0  0  0
 20 23  1  0  0  0  0
 23 24  2  0  0  0  0
 23 25  1  0  0  0  0
 24 26  1  0  0  0  0
 25 27  2  0  0  0  0
 26 28  2  0  0  0  0
 27 28  1  0  0  0  0
M  END
