559
 OpenBabel10141417493D

 39 42  0  0  0  0  0  0  0  0999 V2000
    2.1307    1.4568    2.7680 S   0  0  0  0  0  0  0  0  0  0  0  0
    1.8846    1.4402    1.3098 O   0  0  0  0  0  0  0  0  0  0  0  0
    2.7093    0.3189    3.4679 O   0  0  0  0  0  0  0  0  0  0  0  0
   -0.8191    3.4810    1.6030 O   0  0  0  0  0  0  0  0  0  0  0  0
   -2.9962    1.6545    0.5689 O   0  0  0  0  0  0  0  0  0  0  0  0
    0.1123    6.2681    1.5163 O   0  0  0  0  0  0  0  0  0  0  0  0
   -6.4915    0.9454   -0.2540 O   0  0  0  0  0  0  0  0  0  0  0  0
    0.7098    1.9339    3.5493 N   0  0  0  0  0  0  0  0  0  0  0  0
   -0.7464    0.1823    3.3849 N   0  0  0  0  0  0  0  0  0  0  0  0
   -2.8439    0.4093    2.4294 N   0  0  0  0  0  0  0  0  0  0  0  0
   -1.3611   -2.6948    2.7191 N   0  0  0  0  0  0  0  0  0  0  0  0
   -3.5934   -2.1429    3.3487 N   0  0  0  0  0  0  0  0  0  0  0  0
    5.5281    6.4181    4.0092 C   0  0  0  0  0  0  0  0  0  0  0  0
    4.6789    5.1711    3.6916 C   0  0  0  0  0  0  0  0  0  0  0  0
    6.5100    6.7007    2.8520 C   0  0  0  0  0  0  0  0  0  0  0  0
    4.6223    7.6497    4.2236 C   0  0  0  0  0  0  0  0  0  0  0  0
    6.3829    6.2692    5.2898 C   0  0  0  0  0  0  0  0  0  0  0  0
    4.6796    4.0400    4.5255 C   0  0  0  0  0  0  0  0  0  0  0  0
    3.8668    5.1196    2.5336 C   0  0  0  0  0  0  0  0  0  0  0  0
    3.1379    2.9041    3.0944 C   0  0  0  0  0  0  0  0  0  0  0  0
    3.9145    2.9027    4.2322 C   0  0  0  0  0  0  0  0  0  0  0  0
    3.1002    3.9978    2.2306 C   0  0  0  0  0  0  0  0  0  0  0  0
   -0.5010    1.4692    2.9678 C   0  0  0  0  0  0  0  0  0  0  0  0
   -1.2843    2.2540    2.1120 C   0  0  0  0  0  0  0  0  0  0  0  0
   -2.4205    1.5241    1.8009 C   0  0  0  0  0  0  0  0  0  0  0  0
   -1.9457   -0.3300    3.0686 C   0  0  0  0  0  0  0  0  0  0  0  0
   -1.6465    4.5848    1.3147 C   0  0  0  0  0  0  0  0  0  0  0  0
   -2.2886   -1.8005    3.1293 C   0  0  0  0  0  0  0  0  0  0  0  0
   -4.1416    0.8422    0.2974 C   0  0  0  0  0  0  0  0  0  0  0  0
   -1.2277    5.9402    1.4358 C   0  0  0  0  0  0  0  0  0  0  0  0
   -2.9153    4.4446    0.7540 C   0  0  0  0  0  0  0  0  0  0  0  0
   -2.1988    6.9790    1.3851 C   0  0  0  0  0  0  0  0  0  0  0  0
   -5.3766    1.7199    0.1665 C   0  0  0  0  0  0  0  0  0  0  0  0
   -3.8451    5.4744    0.6008 C   0  0  0  0  0  0  0  0  0  0  0  0
   -3.5083    6.7461    0.9847 C   0  0  0  0  0  0  0  0  0  0  0  0
   -1.7796   -3.9687    2.5313 C   0  0  0  0  0  0  0  0  0  0  0  0
   -3.9435   -3.4367    3.1633 C   0  0  0  0  0  0  0  0  0  0  0  0
   -3.0678   -4.4029    2.7392 C   0  0  0  0  0  0  0  0  0  0  0  0
    0.4944    7.5843    1.0444 C   0  0  0  0  0  0  0  0  0  0  0  0
  1  2  2  0  0  0  0
  1  3  2  0  0  0  0
  1  8  1  0  0  0  0
  1 20  1  0  0  0  0
  4 24  1  0  0  0  0
  4 27  1  0  0  0  0
  5 25  1  0  0  0  0
  5 29  1  0  0  0  0
  6 30  1  0  0  0  0
  6 39  1  0  0  0  0
  7 33  1  0  0  0  0
  8 23  1  0  0  0  0
  9 23  1  0  0  0  0
  9 26  2  0  0  0  0
 10 25  2  0  0  0  0
 10 26  1  0  0  0  0
 11 28  2  0  0  0  0
 11 36  1  0  0  0  0
 12 28  1  0  0  0  0
 12 37  2  0  0  0  0
 13 14  1  0  0  0  0
 13 15  1  0  0  0  0
 13 16  1  0  0  0  0
 13 17  1  0  0  0  0
 14 18  2  0  0  0  0
 14 19  1  0  0  0  0
 18 21  1  0  0  0  0
 19 22  2  0  0  0  0
 20 21  2  0  0  0  0
 20 22  1  0  0  0  0
 23 24  2  0  0  0  0
 24 25  1  0  0  0  0
 26 28  1  0  0  0  0
 27 30  1  0  0  0  0
 27 31  2  0  0  0  0
 29 33  1  0  0  0  0
 30 32  2  0  0  0  0
 31 34  1  0  0  0  0
 32 35  1  0  0  0  0
 34 35  2  0  0  0  0
 36 38  2  0  0  0  0
 37 38  1  0  0  0  0
M  END
