
 OpenBabel10141417513D

 36 39  0  0  0  0  0  0  0  0999 V2000
    4.2060    1.4071    0.9805 C   0  0  0  0  0  0  0  0  0  0  0  0
    4.2641    0.0480    1.2303 C   0  0  0  0  0  0  0  0  0  0  0  0
    3.0568   -0.6853    1.1688 C   0  0  0  0  0  0  0  0  0  0  0  0
    1.8318    0.0598    0.9048 C   0  0  0  0  0  0  0  0  0  0  0  0
    1.9410    1.4232    0.5575 C   0  0  0  0  0  0  0  0  0  0  0  0
    3.0948    2.0929    0.6342 N   0  0  0  0  0  0  0  0  0  0  0  0
    0.5071   -0.4540    0.9088 C   0  0  0  0  0  0  0  0  0  0  0  0
   -0.5987    0.2375    0.3585 C   0  0  0  0  0  0  0  0  0  0  0  0
   -0.3642    1.4554   -0.2752 C   0  0  0  0  0  0  0  0  0  0  0  0
    0.8535    2.0868   -0.0067 C   0  0  0  0  0  0  0  0  0  0  0  0
    3.0022   -2.1245    1.1515 N   0  0  0  0  0  0  0  0  0  0  0  0
   -1.1392    2.1137   -1.1869 O   0  0  0  0  0  0  0  0  0  0  0  0
   -1.9812    1.4320   -2.1466 C   0  0  0  0  0  0  0  0  0  0  0  0
    3.7946   -3.0982    0.4648 C   0  0  0  0  0  0  0  0  0  0  0  0
    3.5889   -4.4900    0.6301 C   0  0  0  0  0  0  0  0  0  0  0  0
    4.4413   -5.4385    0.0349 C   0  0  0  0  0  0  0  0  0  0  0  0
    5.5374   -5.0142   -0.7188 C   0  0  0  0  0  0  0  0  0  0  0  0
    5.7668   -3.6505   -0.9102 C   0  0  0  0  0  0  0  0  0  0  0  0
    4.8584   -2.7271   -0.3693 C   0  0  0  0  0  0  0  0  0  0  0  0
    6.5658   -6.2037   -1.4361 Cl  0  0  0  0  0  0  0  0  0  0  0  0
   -1.5439    0.0191   -2.5965 C   0  0  0  0  0  0  0  0  0  0  0  0
   -2.5508   -0.7864   -3.4416 C   0  0  0  0  0  0  0  0  0  0  0  0
   -2.0361   -2.1267   -3.8190 N   0  0  0  0  0  0  0  0  0  0  0  0
   -0.7713   -2.0898   -4.5917 C   0  0  0  0  0  0  0  0  0  0  0  0
   -0.8311   -2.6563   -6.0344 C   0  0  0  0  0  0  0  0  0  0  0  0
   -2.0021   -2.1905   -6.7994 N   0  0  0  0  0  0  0  0  0  0  0  0
   -3.2459   -2.3851   -6.0208 C   0  0  0  0  0  0  0  0  0  0  0  0
   -3.0485   -2.8967   -4.5703 C   0  0  0  0  0  0  0  0  0  0  0  0
   -1.7531   -0.4874    0.4867 O   0  0  0  0  0  0  0  0  0  0  0  0
   -3.0175    0.1150    0.2610 C   0  0  0  0  0  0  0  0  0  0  0  0
    2.2216   -5.0928    1.5053 Cl  0  0  0  0  0  0  0  0  0  0  0  0
    6.8271   -3.2703   -1.6947 O   0  0  0  0  0  0  0  0  0  0  0  0
    7.4973   -2.0744   -1.2942 C   0  0  0  0  0  0  0  0  0  0  0  0
    5.5889   -0.4676    1.5129 C   0  0  0  0  0  0  0  0  0  0  0  0
    6.6996   -0.7535    1.6339 N   0  0  0  0  0  0  0  0  0  0  0  0
   -1.8052   -0.8030   -7.2199 C   0  0  0  0  0  0  0  0  0  0  0  0
  1  2  1  0  0  0  0
  1  6  2  0  0  0  0
  2  3  2  0  0  0  0
  2 34  1  0  0  0  0
  3  4  1  0  0  0  0
  3 11  1  0  0  0  0
  4  5  1  0  0  0  0
  4  7  2  0  0  0  0
  5  6  1  0  0  0  0
  5 10  2  0  0  0  0
  7  8  1  0  0  0  0
  8  9  2  0  0  0  0
  8 29  1  0  0  0  0
  9 10  1  0  0  0  0
  9 12  1  0  0  0  0
 11 14  1  0  0  0  0
 12 13  1  0  0  0  0
 13 21  1  0  0  0  0
 14 15  2  0  0  0  0
 14 19  1  0  0  0  0
 15 16  1  0  0  0  0
 15 31  1  0  0  0  0
 16 17  2  0  0  0  0
 17 18  1  0  0  0  0
 17 20  1  0  0  0  0
 18 19  2  0  0  0  0
 18 32  1  0  0  0  0
 21 22  1  0  0  0  0
 22 23  1  0  0  0  0
 23 24  1  0  0  0  0
 23 28  1  0  0  0  0
 24 25  1  0  0  0  0
 25 26  1  0  0  0  0
 26 27  1  0  0  0  0
 26 36  1  0  0  0  0
 27 28  1  0  0  0  0
 29 30  1  0  0  0  0
 32 33  1  0  0  0  0
 34 35  3  0  0  0  0
M  END
