1158
 OpenBabel10141417513D

 13 13  0  0  0  0  0  0  0  0999 V2000
    4.5557    1.3903    2.6891 Br  0  0  0  0  0  0  0  0  0  0  0  0
    3.3548    4.4560    0.1258 N   0  3  0  0  0  0  0  0  0  0  0  0
    3.0733    2.9175    0.1791 C   0  0  0  0  0  0  0  0  0  0  0  0
    4.0719    4.9038    1.4127 C   0  0  0  0  0  0  0  0  0  0  0  0
    4.2527    4.6801   -1.0961 C   0  0  0  0  0  0  0  0  0  0  0  0
    2.0615    5.2312   -0.0720 C   0  0  0  0  0  0  0  0  0  0  0  0
    2.2008    2.3840    1.2923 C   0  0  0  0  0  0  0  0  0  0  0  0
    4.3670    6.3993    1.4589 C   0  0  0  0  0  0  0  0  0  0  0  0
    2.7033    1.7269    2.4294 C   0  0  0  0  0  0  0  0  0  0  0  0
    0.8001    2.5015    1.1689 C   0  0  0  0  0  0  0  0  0  0  0  0
    1.8394    1.2518    3.4261 C   0  0  0  0  0  0  0  0  0  0  0  0
   -0.0575    2.0311    2.1669 C   0  0  0  0  0  0  0  0  0  0  0  0
    0.4616    1.4167    3.2963 C   0  0  0  0  0  0  0  0  0  0  0  0
  1  9  1  0  0  0  0
  2  3  1  0  0  0  0
  2  4  1  0  0  0  0
  2  5  1  0  0  0  0
  2  6  1  0  0  0  0
  3  7  1  0  0  0  0
  4  8  1  0  0  0  0
  7  9  1  0  0  0  0
  7 10  2  0  0  0  0
  9 11  2  0  0  0  0
 10 12  1  0  0  0  0
 11 13  1  0  0  0  0
 12 13  2  0  0  0  0
M  CHG  1   2   1
M  END
