1194
 OpenBabel10141417483D

 23 24  0  0  1  0  0  0  0  0999 V2000
   -0.1733    2.3265   -1.0144 S   0  0  0  0  0  0  0  0  0  0  0  0
    2.7887    2.1823   -1.2438 S   0  0  0  0  0  0  0  0  0  0  0  0
    5.3990    0.8360   -1.4487 S   0  0  0  0  0  0  0  0  0  0  0  0
   -0.3356    2.8265   -2.3663 O   0  0  0  0  0  0  0  0  0  0  0  0
   -0.0959    3.1669    0.1476 O   0  0  0  0  0  0  0  0  0  0  0  0
   -4.7991    3.6576   -0.5848 O   0  0  0  0  0  0  0  0  0  0  0  0
    5.8632    1.6880   -0.3899 O   0  0  0  0  0  0  0  0  0  0  0  0
    5.8751   -0.5200   -1.6264 O   0  0  0  0  0  0  0  0  0  0  0  0
   -1.3482    1.1058   -0.7450 N   0  0  0  0  0  0  0  0  0  0  0  0
    0.0895   -1.3021    0.3687 N   0  0  0  0  0  0  0  0  0  0  0  0
    5.7430    1.6104   -2.9012 N   0  0  0  0  0  0  0  0  0  0  0  0
    0.1768   -0.8925   -1.0446 C   0  0  1  0  0  0  0  0  0  0  0  0
   -1.1079   -0.1289   -1.5651 C   0  0  0  0  0  0  0  0  0  0  0  0
    1.4112   -0.0030   -1.1326 C   0  0  0  0  0  0  0  0  0  0  0  0
    1.3114    1.3760   -1.0931 C   0  0  0  0  0  0  0  0  0  0  0  0
   -2.7573    1.5508   -0.6034 C   0  0  0  0  0  0  0  0  0  0  0  0
    2.7823   -0.3892   -1.2525 C   0  0  0  0  0  0  0  0  0  0  0  0
   -3.2824    2.2690   -1.8443 C   0  0  0  0  0  0  0  0  0  0  0  0
    3.6400    0.6941   -1.3068 C   0  0  0  0  0  0  0  0  0  0  0  0
   -1.0071   -2.2345    0.6263 C   0  0  0  0  0  0  0  0  0  0  0  0
   -4.7155    2.7569   -1.6853 C   0  0  0  0  0  0  0  0  0  0  0  0
   -1.0745   -2.5907    2.1040 C   0  0  0  0  0  0  0  0  0  0  0  0
   -6.0935    4.2375   -0.4720 C   0  0  0  0  0  0  0  0  0  0  0  0
  1  4  2  0  0  0  0
  1  5  2  0  0  0  0
  1  9  1  0  0  0  0
  1 15  1  0  0  0  0
  2 15  1  0  0  0  0
  2 19  1  0  0  0  0
  3  7  2  0  0  0  0
  3  8  2  0  0  0  0
  3 11  1  0  0  0  0
  3 19  1  0  0  0  0
  6 21  1  0  0  0  0
  6 23  1  0  0  0  0
  9 13  1  0  0  0  0
  9 16  1  0  0  0  0
 10 20  1  0  0  0  0
 12 13  1  0  0  0  0
 12 14  1  0  0  0  0
 12 10  1  1  0  0  0
 14 15  2  0  0  0  0
 14 17  1  0  0  0  0
 16 18  1  0  0  0  0
 17 19  2  0  0  0  0
 18 21  1  0  0  0  0
 20 22  1  0  0  0  0
M  END
