
 OpenBabel10141417483D

 20 20  0  0  0  0  0  0  0  0999 V2000
    6.0218   -0.3956   -2.0859 C   0  0  0  0  0  0  0  0  0  0  0  0
    2.4352   -1.0634   -1.9119 C   0  0  0  0  0  0  0  0  0  0  0  0
    2.0048    4.8561    1.6869 C   0  0  0  0  0  0  0  0  0  0  0  0
    4.8981    0.6378   -2.1187 C   0  0  0  0  0  0  0  0  0  0  0  0
    3.3030   -0.6195   -0.7339 C   0  0  0  0  0  0  0  0  0  0  0  0
    5.3074    2.5053    0.3057 C   0  0  0  0  0  0  0  0  0  0  0  0
    4.6936    1.0761    0.3031 C   0  0  0  0  0  0  0  0  0  0  0  0
    6.4621    6.2610    2.4032 C   0  0  0  0  0  0  0  0  0  0  0  0
    3.8962    6.9348    1.6252 C   0  0  0  0  0  0  0  0  0  0  0  0
    5.5734    5.2280    2.0364 C   0  0  0  0  0  0  0  0  0  0  0  0
    6.0514    7.5986    2.4248 C   0  0  0  0  0  0  0  0  0  0  0  0
    4.7436    7.9480    2.0798 C   0  0  0  0  0  0  0  0  0  0  0  0
    4.2646    5.5763    1.6706 C   0  0  0  0  0  0  0  0  0  0  0  0
    6.0615    3.8326    2.2035 C   0  0  0  0  0  0  0  0  0  0  0  0
    7.2879    8.9175    3.0104 Br  0  0  0  0  0  0  0  0  0  0  0  0
    4.3143    9.2828    1.9831 N   0  0  0  0  0  0  0  0  0  0  0  0
    5.9714    2.7273    1.5884 N   0  0  0  0  0  0  0  0  0  0  0  0
    4.0066    0.6617   -0.9474 N   0  0  0  0  0  0  0  0  0  0  0  0
    6.8255    3.7746    3.3179 O   0  0  0  0  0  0  0  0  0  0  0  0
    3.3676    4.5879    1.3728 O   0  0  0  0  0  0  0  0  0  0  0  0
  4  1  1  0  0  0  0
  5  2  1  0  0  0  0
  7  6  1  0  0  0  0
 10  8  1  0  0  0  0
 11  8  2  0  0  0  0
 12  9  2  0  0  0  0
 12 11  1  0  0  0  0
 13  9  1  0  0  0  0
 13 10  2  0  0  0  0
 14 10  1  0  0  0  0
 15 11  1  0  0  0  0
 16 12  1  0  0  0  0
 17  6  1  0  0  0  0
 17 14  2  3  0  0  0
 18  4  1  0  0  0  0
 18  5  1  0  0  0  0
 18  7  1  0  0  0  0
 19 14  1  0  0  0  0
 20  3  1  0  0  0  0
 20 13  1  0  0  0  0
M  END
