963
 OpenBabel10141417483D

 20 21  0  0  0  0  0  0  0  0999 V2000
    4.8568    0.6650    5.1035 Br  0  0  0  0  0  0  0  0  0  0  0  0
    7.6005    0.5579   -1.2012 O   0  0  0  0  0  0  0  0  0  0  0  0
   12.9963   -1.0987   -1.9034 O   0  0  0  0  0  0  0  0  0  0  0  0
   13.4741   -3.1696   -1.1264 O   0  0  0  0  0  0  0  0  0  0  0  0
    9.9708   -0.4421   -2.2012 N   0  0  0  0  0  0  0  0  0  0  0  0
   10.2627   -2.7973   -1.6473 C   0  0  0  0  0  0  0  0  0  0  0  0
    8.4129   -1.5782   -0.6224 C   0  0  0  0  0  0  0  0  0  0  0  0
    9.4992   -1.6138   -1.5376 C   0  0  0  0  0  0  0  0  0  0  0  0
   11.5040   -2.8742   -2.5066 C   0  0  0  0  0  0  0  0  0  0  0  0
    9.8645   -3.9478   -0.9450 C   0  0  0  0  0  0  0  0  0  0  0  0
    7.6764   -0.3052   -0.3282 C   0  0  0  0  0  0  0  0  0  0  0  0
    7.9952   -2.7637    0.0027 C   0  0  0  0  0  0  0  0  0  0  0  0
    7.0368   -0.0511    1.0051 C   0  0  0  0  0  0  0  0  0  0  0  0
    8.7223   -3.9395   -0.1515 C   0  0  0  0  0  0  0  0  0  0  0  0
    7.5498   -0.5945    2.1928 C   0  0  0  0  0  0  0  0  0  0  0  0
    5.8999    0.7683    1.0707 C   0  0  0  0  0  0  0  0  0  0  0  0
   12.7475   -2.4228   -1.7826 C   0  0  0  0  0  0  0  0  0  0  0  0
    6.8947   -0.3868    3.4120 C   0  0  0  0  0  0  0  0  0  0  0  0
    5.2529    0.9897    2.2942 C   0  0  0  0  0  0  0  0  0  0  0  0
    5.7454    0.3985    3.4562 C   0  0  0  0  0  0  0  0  0  0  0  0
  1 20  1  0  0  0  0
  2 11  2  0  0  0  0
  3 17  1  0  0  0  0
  4 17  2  0  0  0  0
  5  8  1  0  0  0  0
  6  8  2  0  0  0  0
  6  9  1  0  0  0  0
  6 10  1  0  0  0  0
  7  8  1  0  0  0  0
  7 11  1  0  0  0  0
  7 12  2  0  0  0  0
  9 17  1  0  0  0  0
 10 14  2  0  0  0  0
 11 13  1  0  0  0  0
 12 14  1  0  0  0  0
 13 15  2  0  0  0  0
 13 16  1  0  0  0  0
 15 18  1  0  0  0  0
 16 19  2  0  0  0  0
 18 20  2  0  0  0  0
 19 20  1  0  0  0  0
M  END
