
 OpenBabel10141417493D

 18 19  0  0  0  0  0  0  0  0999 V2000
    3.4337   -2.4366    0.5131 C   0  0  0  0  0  0  0  0  0  0  0  0
   -0.1948   -3.1323   -2.5284 C   0  0  0  0  0  0  0  0  0  0  0  0
   -0.0977   -1.6521   -2.1763 C   0  0  0  0  0  0  0  0  0  0  0  0
    0.8806   -3.9607   -1.8325 C   0  0  0  0  0  0  0  0  0  0  0  0
    1.3122   -1.1136   -2.4097 C   0  0  0  0  0  0  0  0  0  0  0  0
    2.2780   -3.3744   -2.0397 C   0  0  0  0  0  0  0  0  0  0  0  0
    3.1822    1.0240    2.2951 C   0  0  0  0  0  0  0  0  0  0  0  0
    2.2976    0.5286    4.4911 C   0  0  0  0  0  0  0  0  0  0  0  0
    2.4784   -0.2254    0.2174 C   0  0  0  0  0  0  0  0  0  0  0  0
    2.3312    0.0685    1.7038 C   0  0  0  0  0  0  0  0  0  0  0  0
    3.1578    1.2532    3.6617 C   0  0  0  0  0  0  0  0  0  0  0  0
    2.3974   -1.8833   -1.6202 C   0  0  0  0  0  0  0  0  0  0  0  0
    1.3960   -0.3648    3.9074 C   0  0  0  0  0  0  0  0  0  0  0  0
    1.3783   -0.5912    2.5204 C   0  0  0  0  0  0  0  0  0  0  0  0
    4.2824    2.5704    4.4232 Br  0  0  0  0  0  0  0  0  0  0  0  0
    0.2630   -1.3630    5.0643 Br  0  0  0  0  0  0  0  0  0  0  0  0
    0.2940   -1.2626    1.9157 N   0  0  0  0  0  0  0  0  0  0  0  0
    2.3499   -1.6716   -0.1396 N   0  0  0  0  0  0  0  0  0  0  0  0
  3  2  1  0  0  0  0
  4  2  1  0  0  0  0
  5  3  1  0  0  0  0
  6  4  1  0  0  0  0
 10  7  2  0  0  0  0
 10  9  1  0  0  0  0
 11  7  1  0  0  0  0
 11  8  2  0  0  0  0
 12  5  1  0  0  0  0
 12  6  1  0  0  0  0
 13  8  1  0  0  0  0
 14 10  1  0  0  0  0
 14 13  2  0  0  0  0
 15 11  1  0  0  0  0
 16 13  1  0  0  0  0
 17 14  1  0  0  0  0
 18  1  1  0  0  0  0
 18  9  1  0  0  0  0
 18 12  1  0  0  0  0
M  END
