
 OpenBabel10141417483D

 22 25  0  0  0  0  0  0  0  0999 V2000
    0.9372    0.0464    0.2165 C   0  0  0  0  0  0  0  0  0  0  0  0
    6.1737   -6.4451   -3.0632 C   0  0  0  0  0  0  0  0  0  0  0  0
    5.1677   -6.7229   -3.9872 C   0  0  0  0  0  0  0  0  0  0  0  0
    6.0094   -5.4070   -2.1459 C   0  0  0  0  0  0  0  0  0  0  0  0
    4.0005   -5.9558   -4.0039 C   0  0  0  0  0  0  0  0  0  0  0  0
    2.9879   -4.8454    0.2993 C   0  0  0  0  0  0  0  0  0  0  0  0
    5.6512   -1.6063   -0.1159 C   0  0  0  0  0  0  0  0  0  0  0  0
    2.4110   -0.0290    0.0825 C   0  0  0  0  0  0  0  0  0  0  0  0
    4.8286   -4.6490   -2.1444 C   0  0  0  0  0  0  0  0  0  0  0  0
    3.5858   -3.6260   -0.1956 C   0  0  0  0  0  0  0  0  0  0  0  0
    3.8281   -4.9124   -3.0886 C   0  0  0  0  0  0  0  0  0  0  0  0
    1.8765   -4.6026    1.0646 C   0  0  0  0  0  0  0  0  0  0  0  0
    4.4636   -0.7226   -0.1794 C   0  0  0  0  0  0  0  0  0  0  0  0
    4.7154   -3.5682   -1.1310 C   0  0  0  0  0  0  0  0  0  0  0  0
    2.8694   -2.5327    0.2715 C   0  0  0  0  0  0  0  0  0  0  0  0
    0.8464   -5.9520    1.8525 Br  0  0  0  0  0  0  0  0  0  0  0  0
    2.3866   -3.9692   -3.2164 Cl  0  0  0  0  0  0  0  0  0  0  0  0
    5.6302   -2.6640   -1.1175 N   0  0  0  0  0  0  0  0  0  0  0  0
    3.1801    1.0186   -0.1404 N   0  0  0  0  0  0  0  0  0  0  0  0
    4.4630    0.5860   -0.3021 N   0  0  0  0  0  0  0  0  0  0  0  0
    3.1839   -1.1849    0.0670 N   0  0  0  0  0  0  0  0  0  0  0  0
    1.5220   -2.9591    1.2102 S   0  0  0  0  0  0  0  0  0  0  0  0
  3  2  2  0  0  0  0
  4  2  1  0  0  0  0
  5  3  1  0  0  0  0
  8  1  1  0  0  0  0
  9  4  2  0  0  0  0
 10  6  1  0  0  0  0
 11  5  2  0  0  0  0
 11  9  1  0  0  0  0
 12  6  2  0  0  0  0
 13  7  1  0  0  0  0
 14  9  1  0  0  0  0
 14 10  1  0  0  0  0
 15 10  2  0  0  0  0
 16 12  1  0  0  0  0
 17 11  1  0  0  0  0
 18  7  1  0  0  0  0
 18 14  2  0  0  0  0
 19  8  2  0  0  0  0
 20 13  2  0  0  0  0
 20 19  1  0  0  0  0
 21  8  1  0  0  0  0
 21 13  1  0  0  0  0
 21 15  1  0  0  0  0
 22 12  1  0  0  0  0
 22 15  1  0  0  0  0
M  END
