354
 OpenBabel10141417503D

 31 34  0  0  1  0  0  0  0  0999 V2000
   10.6607    4.1321   -5.7501 Cl  0  0  0  0  0  0  0  0  0  0  0  0
    8.0295   -0.1323   -1.1722 N   0  0  0  0  0  0  0  0  0  0  0  0
    7.2364    0.4672    1.6921 N   0  0  0  0  0  0  0  0  0  0  0  0
    7.1885    1.0329   -0.8025 C   0  0  0  0  0  0  0  0  0  0  0  0
    7.7301   -1.1803   -0.1761 C   0  0  0  0  0  0  0  0  0  0  0  0
    7.3341    1.5211    0.6596 C   0  0  0  0  0  0  0  0  0  0  0  0
    7.9546   -0.7603    1.2923 C   0  0  0  0  0  0  0  0  0  0  0  0
    9.4838    0.2051   -1.2710 C   0  0  3  0  0  0  0  0  0  0  0  0
    7.7194    1.0097    2.9883 C   0  0  0  0  0  0  0  0  0  0  0  0
    9.7910    1.1723   -2.4298 C   0  0  0  0  0  0  0  0  0  0  0  0
   10.3886   -1.0347   -1.3684 C   0  0  0  0  0  0  0  0  0  0  0  0
    7.6886    0.0759    4.1816 C   0  0  0  0  0  0  0  0  0  0  0  0
    7.5785   -2.6349    7.6533 C   0  0  0  0  0  0  0  0  0  0  0  0
    7.6321   -1.6769    6.4458 C   0  0  0  0  0  0  0  0  0  0  0  0
    6.7279   -0.9329    4.2934 C   0  0  0  0  0  0  0  0  0  0  0  0
    8.5920    0.2308    5.2366 C   0  0  0  0  0  0  0  0  0  0  0  0
    9.0040    1.2050   -3.5965 C   0  0  0  0  0  0  0  0  0  0  0  0
   10.8921    2.0437   -2.3459 C   0  0  0  0  0  0  0  0  0  0  0  0
   10.2230   -1.9845   -2.3909 C   0  0  0  0  0  0  0  0  0  0  0  0
   11.3774   -1.2683   -0.3945 C   0  0  0  0  0  0  0  0  0  0  0  0
    6.7339   -1.8111    5.3804 C   0  0  0  0  0  0  0  0  0  0  0  0
    8.5714   -0.6289    6.3490 C   0  0  0  0  0  0  0  0  0  0  0  0
    8.0595   -1.9573    8.9559 C   0  0  0  0  0  0  0  0  0  0  0  0
    6.1369   -3.1372    7.9206 C   0  0  0  0  0  0  0  0  0  0  0  0
    8.4650   -3.8696    7.3961 C   0  0  0  0  0  0  0  0  0  0  0  0
    9.2677    2.1202   -4.6176 C   0  0  0  0  0  0  0  0  0  0  0  0
   11.1667    2.9493   -3.3761 C   0  0  0  0  0  0  0  0  0  0  0  0
   10.9987   -3.1459   -2.4197 C   0  0  0  0  0  0  0  0  0  0  0  0
   12.1542   -2.4293   -0.4280 C   0  0  0  0  0  0  0  0  0  0  0  0
   10.3451    2.9923   -4.5003 C   0  0  0  0  0  0  0  0  0  0  0  0
   11.9596   -3.3704   -1.4362 C   0  0  0  0  0  0  0  0  0  0  0  0
  1 30  1  0  0  0  0
  2  4  1  0  0  0  0
  2  5  1  0  0  0  0
  2  8  1  0  0  0  0
  3  6  1  0  0  0  0
  3  7  1  0  0  0  0
  3  9  1  0  0  0  0
  4  6  1  0  0  0  0
  5  7  1  0  0  0  0
  8 10  1  0  0  0  0
  8 11  1  0  0  0  0
  9 12  1  0  0  0  0
 10 17  2  0  0  0  0
 10 18  1  0  0  0  0
 11 19  2  0  0  0  0
 11 20  1  0  0  0  0
 12 15  2  0  0  0  0
 12 16  1  0  0  0  0
 13 14  1  0  0  0  0
 13 23  1  0  0  0  0
 13 24  1  0  0  0  0
 13 25  1  0  0  0  0
 14 21  2  0  0  0  0
 14 22  1  0  0  0  0
 15 21  1  0  0  0  0
 16 22  2  0  0  0  0
 17 26  1  0  0  0  0
 18 27  2  0  0  0  0
 19 28  1  0  0  0  0
 20 29  2  0  0  0  0
 26 30  2  0  0  0  0
 27 30  1  0  0  0  0
 28 31  2  0  0  0  0
 29 31  1  0  0  0  0
M  END
