
 OpenBabel10141417523D

 31 35  0  0  1  0  0  0  0  0999 V2000
    0.3677    1.2162    1.8956 C   0  0  1  0  0  0  0  0  0  0  0  0
    0.1045    2.7662    1.9159 C   0  0  2  0  0  0  0  0  0  0  0  0
    0.4687    0.8310    0.4224 C   0  0  1  0  0  0  0  0  0  0  0  0
   -0.7540    0.4595    2.3926 O   0  0  0  0  0  0  0  0  0  0  0  0
    1.6140    0.7200    2.6514 C   0  0  0  0  0  0  0  0  0  0  0  0
    0.6286    3.2851    0.5459 C   0  0  1  0  0  0  0  0  0  0  0  0
    0.7708    3.4949    3.1078 C   0  0  0  0  0  0  0  0  0  0  0  0
   -1.4211    3.0539    1.9810 C   0  0  0  0  0  0  0  0  0  0  0  0
    0.8091    2.0728   -0.3799 C   0  0  0  0  0  0  0  0  0  0  0  0
   -0.8285    0.3345    0.0928 O   0  0  0  0  0  0  0  0  0  0  0  0
   -1.2264   -0.3224    1.2910 C   0  0  3  0  0  0  0  0  0  0  0  0
    1.4266    0.3211    4.1204 C   0  0  0  0  0  0  0  0  0  0  0  0
    1.8300    4.2617    0.5939 C   0  0  1  0  0  0  0  0  0  0  0  0
    1.0138    4.9998    2.9330 C   0  0  1  0  0  0  0  0  0  0  0  0
   -2.7379   -0.4971    1.3587 C   0  0  0  0  0  0  0  0  0  0  0  0
    2.6275   -0.1100    4.7436 O   0  0  0  0  0  0  0  0  0  0  0  0
    1.4759    5.4642    1.5206 C   0  0  2  0  0  0  0  0  0  0  0  0
    3.1987    3.6368    0.9304 C   0  0  0  0  0  0  0  0  0  0  0  0
   -0.2028    5.6722    3.2693 O   0  0  0  0  0  0  0  0  0  0  0  0
   -3.2587   -1.3638    0.2111 C   0  0  0  0  0  0  0  0  0  0  0  0
    2.6400    6.5265    1.5651 C   0  0  2  0  0  0  0  0  0  0  0  0
    4.3246    4.6659    1.0089 C   0  0  0  0  0  0  0  0  0  0  0  0
   -4.7656   -1.5480    0.2815 C   0  0  0  0  0  0  0  0  0  0  0  0
    3.9415    5.8089    1.9108 C   0  0  0  0  0  0  0  0  0  0  0  0
    2.3283    7.6486    2.5513 C   0  0  0  0  0  0  0  0  0  0  0  0
    2.7925    7.2326    0.1942 C   0  0  0  0  0  0  0  0  0  0  0  0
    4.7031    6.1308    2.9706 C   0  0  0  0  0  0  0  0  0  0  0  0
    3.0971    7.9672    3.6061 C   0  0  0  0  0  0  0  0  0  0  0  0
    4.3286    7.2211    3.8961 C   0  0  0  0  0  0  0  0  0  0  0  0
    5.0174    7.4902    4.8811 O   0  0  0  0  0  0  0  0  0  0  0  0
    2.7340    0.7038    2.1310 O   0  0  0  0  0  0  0  0  0  0  0  0
  1  2  1  0  0  0  0
  1  3  1  0  0  0  0
  1  4  1  0  0  0  0
  1  5  1  6  0  0  0
  2  6  1  0  0  0  0
  2  7  1  0  0  0  0
  2  8  1  1  0  0  0
  3  9  1  1  0  0  0
  3 10  1  0  0  0  0
  4 11  1  0  0  0  0
  5 12  1  0  0  0  0
  5 31  2  0  0  0  0
  6 13  1  0  0  0  0
  6  9  1  1  0  0  0
  7 14  1  0  0  0  0
 10 11  1  0  0  0  0
 11 15  1  0  0  0  0
 12 16  1  0  0  0  0
 13 18  1  1  0  0  0
 14 17  1  0  0  0  0
 14 19  1  6  0  0  0
 15 20  1  0  0  0  0
 17 13  1  1  0  0  0
 17 21  1  0  0  0  0
 18 22  1  0  0  0  0
 20 23  1  0  0  0  0
 21 24  1  0  0  0  0
 21 25  1  0  0  0  0
 21 26  1  6  0  0  0
 22 24  1  0  0  0  0
 24 27  2  0  0  0  0
 25 28  2  0  0  0  0
 27 29  1  0  0  0  0
 28 29  1  0  0  0  0
 29 30  2  0  0  0  0
M  END
