887
 OpenBabel10141417503D

 25 26  0  0  0  0  0  0  0  0999 V2000
    1.1691   -0.5450   -0.6587 S   0  0  0  0  0  0  0  0  0  0  0  0
    2.6903    2.0574   -0.2362 O   0  0  0  0  0  0  0  0  0  0  0  0
    0.3629   -0.4994    0.5342 O   0  0  0  0  0  0  0  0  0  0  0  0
    0.8966    0.2420   -1.8418 O   0  0  0  0  0  0  0  0  0  0  0  0
    6.9195   -2.3619    1.2113 O   0  0  0  0  0  0  0  0  0  0  0  0
    5.5721   -3.6956    0.0200 O   0  0  0  0  0  0  0  0  0  0  0  0
    5.3897    2.3353    0.2641 N   0  0  0  0  0  0  0  0  0  0  0  0
    1.0368   -2.1388   -1.1932 N   0  0  0  0  0  0  0  0  0  0  0  0
    6.7787    2.5551   -0.1468 C   0  0  0  0  0  0  0  0  0  0  0  0
    6.8658    2.9312   -1.6278 C   0  0  0  0  0  0  0  0  0  0  0  0
    4.8212    1.0555    0.1576 C   0  0  0  0  0  0  0  0  0  0  0  0
    3.4333    0.9056   -0.0713 C   0  0  0  0  0  0  0  0  0  0  0  0
    2.8671   -0.3710   -0.2158 C   0  0  0  0  0  0  0  0  0  0  0  0
    8.3237    3.0161   -2.0874 C   0  0  0  0  0  0  0  0  0  0  0  0
    5.5714   -0.1022    0.3973 C   0  0  0  0  0  0  0  0  0  0  0  0
    5.0068   -1.3752    0.2755 C   0  0  0  0  0  0  0  0  0  0  0  0
    3.6595   -1.5137   -0.0556 C   0  0  0  0  0  0  0  0  0  0  0  0
    8.4399    3.4128   -3.5507 C   0  0  0  0  0  0  0  0  0  0  0  0
    1.8370    2.4151    0.7894 C   0  0  0  0  0  0  0  0  0  0  0  0
    5.8305   -2.5908    0.4571 C   0  0  0  0  0  0  0  0  0  0  0  0
    0.6899    3.1156    0.4064 C   0  0  0  0  0  0  0  0  0  0  0  0
    2.0627    2.1418    2.1411 C   0  0  0  0  0  0  0  0  0  0  0  0
   -0.2492    3.5050    1.3630 C   0  0  0  0  0  0  0  0  0  0  0  0
    1.1191    2.5297    3.0967 C   0  0  0  0  0  0  0  0  0  0  0  0
   -0.0377    3.2052    2.7076 C   0  0  0  0  0  0  0  0  0  0  0  0
  1  3  2  0  0  0  0
  1  4  2  0  0  0  0
  1  8  1  0  0  0  0
  1 13  1  0  0  0  0
  2 12  1  0  0  0  0
  2 19  1  0  0  0  0
  5 20  1  0  0  0  0
  6 20  2  0  0  0  0
  7  9  1  0  0  0  0
  7 11  1  0  0  0  0
  9 10  1  0  0  0  0
 10 14  1  0  0  0  0
 11 12  2  0  0  0  0
 11 15  1  0  0  0  0
 12 13  1  0  0  0  0
 13 17  2  0  0  0  0
 14 18  1  0  0  0  0
 15 16  2  0  0  0  0
 16 17  1  0  0  0  0
 16 20  1  0  0  0  0
 19 21  2  0  0  0  0
 19 22  1  0  0  0  0
 21 23  1  0  0  0  0
 22 24  2  0  0  0  0
 23 25  2  0  0  0  0
 24 25  1  0  0  0  0
M  END
