2475
 OpenBabel10141417513D

 18 18  0  0  1  0  0  0  0  0999 V2000
    6.7615    2.8444   -2.8372 Cl  0  0  0  0  0  0  0  0  0  0  0  0
    1.5702    4.8066    0.5829 O   0  0  0  0  0  0  0  0  0  0  0  0
    4.4182    3.1166   -1.0600 O   0  0  0  0  0  0  0  0  0  0  0  0
    2.6893    7.0656   -0.8536 N   0  0  0  0  0  0  0  0  0  0  0  0
    3.5475    8.2767   -0.9468 C   0  0  0  0  0  0  0  0  0  0  0  0
    3.4503    5.8254   -0.5857 C   0  0  0  0  0  0  0  0  0  0  0  0
    2.5383    4.5884   -0.4496 C   0  0  3  0  0  0  0  0  0  0  0  0
    4.3049    8.5224    0.3698 C   0  0  0  0  0  0  0  0  0  0  0  0
    4.5433    8.1894   -2.1191 C   0  0  0  0  0  0  0  0  0  0  0  0
    2.6349    9.4941   -1.1996 C   0  0  0  0  0  0  0  0  0  0  0  0
    3.3755    3.3446   -0.1052 C   0  0  0  0  0  0  0  0  0  0  0  0
    4.1510    2.3573   -2.1666 C   0  0  0  0  0  0  0  0  0  0  0  0
    2.9149    1.7693   -2.4323 C   0  0  0  0  0  0  0  0  0  0  0  0
    5.1982    2.1504   -3.0856 C   0  0  0  0  0  0  0  0  0  0  0  0
    2.7070    0.9720   -3.5603 C   0  0  0  0  0  0  0  0  0  0  0  0
    3.7601    0.7746   -4.4652 C   0  0  0  0  0  0  0  0  0  0  0  0
    4.9973    1.3717   -4.2265 C   0  0  0  0  0  0  0  0  0  0  0  0
    1.3828    0.2913   -3.7544 C   0  0  0  0  0  0  0  0  0  0  0  0
  1 14  1  0  0  0  0
  2  7  1  0  0  0  0
  3 11  1  0  0  0  0
  3 12  1  0  0  0  0
  4  5  1  0  0  0  0
  4  6  1  0  0  0  0
  5  8  1  0  0  0  0
  5  9  1  0  0  0  0
  5 10  1  0  0  0  0
  6  7  1  0  0  0  0
  7 11  1  0  0  0  0
 12 13  1  0  0  0  0
 12 14  2  0  0  0  0
 13 15  2  0  0  0  0
 14 17  1  0  0  0  0
 15 16  1  0  0  0  0
 15 18  1  0  0  0  0
 16 17  2  0  0  0  0
M  END
