237
 OpenBabel10141417493D

 15 15  0  0  1  0  0  0  0  0999 V2000
    1.0606   -0.0148   -0.7537 O   0  0  0  0  0  0  0  0  0  0  0  0
    3.6204    1.8134    2.5922 O   0  0  0  0  0  0  0  0  0  0  0  0
    3.0030   -2.5255    2.2921 O   0  0  0  0  0  0  0  0  0  0  0  0
    2.4173   -1.3128    0.4828 N   0  0  0  0  0  0  0  0  0  0  0  0
    3.7174   -0.3902    2.1631 N   0  0  0  0  0  0  0  0  0  0  0  0
    2.9286    1.0891    0.3650 C   0  0  0  0  0  0  0  0  0  0  0  0
    4.1973    1.0582   -0.5903 C   0  0  3  0  0  0  0  0  0  0  0  0
    2.1400    2.4212    0.2431 C   0  0  0  0  0  0  0  0  0  0  0  0
    3.8234    1.1288   -2.0957 C   0  0  0  0  0  0  0  0  0  0  0  0
    2.0361   -0.0961   -0.0107 C   0  0  0  0  0  0  0  0  0  0  0  0
    3.4257    0.8949    1.7997 C   0  0  0  0  0  0  0  0  0  0  0  0
    5.2251    2.1533   -0.2486 C   0  0  0  0  0  0  0  0  0  0  0  0
    0.9045    2.5258    1.1395 C   0  0  0  0  0  0  0  0  0  0  0  0
    5.0133    1.0094   -3.0418 C   0  0  0  0  0  0  0  0  0  0  0  0
    3.0713   -1.4755    1.6624 C   0  0  0  0  0  0  0  0  0  0  0  0
  1 10  2  0  0  0  0
  2 11  2  0  0  0  0
  3 15  2  0  0  0  0
  4 10  1  0  0  0  0
  4 15  1  0  0  0  0
  5 11  1  0  0  0  0
  5 15  1  0  0  0  0
  6  7  1  0  0  0  0
  6  8  1  0  0  0  0
  6 10  1  0  0  0  0
  6 11  1  0  0  0  0
  7  9  1  0  0  0  0
  7 12  1  0  0  0  0
  8 13  1  0  0  0  0
  9 14  1  0  0  0  0
M  END
