241
 OpenBabel10141417503D

 16 16  0  0  0  0  0  0  0  0999 V2000
    1.4764   -0.8818   -0.2627 O   0  0  0  0  0  0  0  0  0  0  0  0
    2.1591    2.0812    3.3247 O   0  0  0  0  0  0  0  0  0  0  0  0
    2.5224   -2.2765    3.8813 O   0  0  0  0  0  0  0  0  0  0  0  0
    2.1529   -1.5393    1.7749 N   0  0  0  0  0  0  0  0  0  0  0  0
    2.7535   -0.0702    3.4509 N   0  0  0  0  0  0  0  0  0  0  0  0
    2.2948    0.8718    1.2188 C   0  0  0  0  0  0  0  0  0  0  0  0
    3.6954    1.1393    0.5417 C   0  0  0  0  0  0  0  0  0  0  0  0
    4.3475    2.5473    0.6879 C   0  0  0  0  0  0  0  0  0  0  0  0
    1.2128    1.8341    0.6680 C   0  0  0  0  0  0  0  0  0  0  0  0
    1.9114   -0.5629    0.8412 C   0  0  0  0  0  0  0  0  0  0  0  0
    2.3734    1.0273    2.7337 C   0  0  0  0  0  0  0  0  0  0  0  0
    4.6479    2.9351    2.1362 C   0  0  0  0  0  0  0  0  0  0  0  0
    5.6634    2.6617   -0.0997 C   0  0  0  0  0  0  0  0  0  0  0  0
   -0.1574    1.6632    1.2891 C   0  0  0  0  0  0  0  0  0  0  0  0
    2.4983   -1.3426    3.0690 C   0  0  0  0  0  0  0  0  0  0  0  0
   -1.1266    0.8856    0.7909 C   0  0  0  0  0  0  0  0  0  0  0  0
  1 10  2  0  0  0  0
  2 11  2  0  0  0  0
  3 15  2  0  0  0  0
  4 10  1  0  0  0  0
  4 15  1  0  0  0  0
  5 11  1  0  0  0  0
  5 15  1  0  0  0  0
  6  7  1  0  0  0  0
  6  9  1  0  0  0  0
  6 10  1  0  0  0  0
  6 11  1  0  0  0  0
  7  8  1  0  0  0  0
  8 12  1  0  0  0  0
  8 13  1  0  0  0  0
  9 14  1  0  0  0  0
 14 16  2  0  0  0  0
M  END
