1091
 OpenBabel10141417533D

 24 26  0  0  1  0  0  0  0  0999 V2000
    1.6949    0.2202    0.2184 N   0  0  0  0  0  0  0  0  0  0  0  0
    1.6076    5.5739   -3.9091 C   0  0  0  0  0  0  0  0  0  0  0  0
    1.5061    4.2225   -3.1671 C   0  0  0  0  0  0  0  0  0  0  0  0
    2.8812    5.6571   -4.7842 C   0  0  0  0  0  0  0  0  0  0  0  0
    0.3821    5.7670   -4.8273 C   0  0  0  0  0  0  0  0  0  0  0  0
    1.6555    6.7810   -2.9415 C   0  0  0  0  0  0  0  0  0  0  0  0
    1.0848    0.3555   -1.1278 C   0  0  0  0  0  0  0  0  0  0  0  0
    1.2732    1.7053   -1.8068 C   0  0  0  0  0  0  0  0  0  0  0  0
    2.0345    3.0368   -3.7089 C   0  0  0  0  0  0  0  0  0  0  0  0
    0.8632    4.1070   -1.9209 C   0  0  0  0  0  0  0  0  0  0  0  0
    1.3928   -1.1348    0.7627 C   0  0  0  0  0  0  0  0  0  0  0  0
    1.9279    1.8052   -3.0406 C   0  0  0  0  0  0  0  0  0  0  0  0
    0.7575    2.8772   -1.2487 C   0  0  0  0  0  0  0  0  0  0  0  0
    1.9531   -1.4273    2.1619 C   0  0  0  0  0  0  0  0  0  0  0  0
    2.9387   -2.4328    2.4283 C   0  0  0  0  0  0  0  0  0  0  0  0
    3.1452    0.4267    0.1455 C   0  0  0  0  0  0  0  0  0  0  0  0
    3.4150   -2.5871    3.7680 C   0  0  0  0  0  0  0  0  0  0  0  0
    1.4483   -0.6581    3.2309 C   0  0  0  0  0  0  0  0  0  0  0  0
    3.4874   -3.3132    1.4662 C   0  0  0  0  0  0  0  0  0  0  0  0
    2.9019   -1.7815    4.7911 C   0  0  0  0  0  0  0  0  0  0  0  0
    1.9182   -0.8409    4.5331 C   0  0  0  0  0  0  0  0  0  0  0  0
    4.3872   -3.5513    4.0770 C   0  0  0  0  0  0  0  0  0  0  0  0
    4.4488   -4.2763    1.7935 C   0  0  0  0  0  0  0  0  0  0  0  0
    4.9038   -4.3942    3.0979 C   0  0  0  0  0  0  0  0  0  0  0  0
  1  7  1  0  0  0  0
  1 11  1  0  0  0  0
  1 16  1  0  0  0  0
  2  3  1  0  0  0  0
  2  4  1  0  0  0  0
  2  5  1  0  0  0  0
  2  6  1  0  0  0  0
  3  9  2  0  0  0  0
  3 10  1  0  0  0  0
  7  8  1  0  0  0  0
  8 12  2  0  0  0  0
  8 13  1  0  0  0  0
  9 12  1  0  0  0  0
 10 13  2  0  0  0  0
 11 14  1  0  0  0  0
 14 15  1  0  0  0  0
 14 18  2  0  0  0  0
 15 17  1  0  0  0  0
 15 19  2  0  0  0  0
 17 20  1  0  0  0  0
 17 22  2  0  0  0  0
 18 21  1  0  0  0  0
 19 23  1  0  0  0  0
 20 21  2  0  0  0  0
 22 24  1  0  0  0  0
 23 24  2  0  0  0  0
M  END
