639
 OpenBabel10141419013D

 25 27  0  0  1  0  0  0  0  0999 V2000
    2.8657   -0.8723    2.8164 Cl  0  0  0  0  0  0  0  0  0  0  0  0
    0.6875   -5.9422    2.4373 Cl  0  0  0  0  0  0  0  0  0  0  0  0
    3.6329    0.9290   -6.6635 Cl  0  0  0  0  0  0  0  0  0  0  0  0
    2.1095   -3.4410    0.8978 S   0  0  0  0  0  0  0  0  0  0  0  0
   -1.7845   -3.1149   -0.3866 N   0  0  0  0  0  0  0  0  0  0  0  0
   -3.5894   -3.0040   -1.6672 N   0  0  0  0  0  0  0  0  0  0  0  0
    0.6130   -2.6124    0.1796 C   0  0  3  0  0  0  0  0  0  0  0  0
    0.9826   -2.0881   -1.2251 C   0  0  0  0  0  0  0  0  0  0  0  0
   -0.5508   -3.6182    0.1533 C   0  0  0  0  0  0  0  0  0  0  0  0
    2.0542   -0.9842   -1.1726 C   0  0  0  0  0  0  0  0  0  0  0  0
    2.4655   -0.4981   -2.5390 C   0  0  0  0  0  0  0  0  0  0  0  0
    1.7259   -3.3851    2.6528 C   0  0  0  0  0  0  0  0  0  0  0  0
   -2.5717   -2.1268    0.1492 C   0  0  0  0  0  0  0  0  0  0  0  0
   -2.4512   -3.6195   -1.4740 C   0  0  0  0  0  0  0  0  0  0  0  0
    3.5325   -1.1023   -3.2221 C   0  0  0  0  0  0  0  0  0  0  0  0
    1.7867    0.5690   -3.1386 C   0  0  0  0  0  0  0  0  0  0  0  0
   -3.6757   -2.0661   -0.6630 C   0  0  0  0  0  0  0  0  0  0  0  0
    3.9011   -0.6542   -4.4930 C   0  0  0  0  0  0  0  0  0  0  0  0
    2.1554    1.0167   -4.4081 C   0  0  0  0  0  0  0  0  0  0  0  0
    2.0832   -2.2812    3.4552 C   0  0  0  0  0  0  0  0  0  0  0  0
    1.1128   -4.4868    3.2828 C   0  0  0  0  0  0  0  0  0  0  0  0
    3.2045    0.3972   -5.0839 C   0  0  0  0  0  0  0  0  0  0  0  0
    1.8185   -2.2793    4.8315 C   0  0  0  0  0  0  0  0  0  0  0  0
    0.8240   -4.4632    4.6502 C   0  0  0  0  0  0  0  0  0  0  0  0
    1.1819   -3.3654    5.4258 C   0  0  0  0  0  0  0  0  0  0  0  0
  1 20  1  0  0  0  0
  2 21  1  0  0  0  0
  3 22  1  0  0  0  0
  4  7  1  0  0  0  0
  4 12  1  0  0  0  0
  5  9  1  0  0  0  0
  5 13  1  0  0  0  0
  5 14  1  0  0  0  0
  6 14  2  0  0  0  0
  6 17  1  0  0  0  0
  7  8  1  0  0  0  0
  7  9  1  0  0  0  0
  8 10  1  0  0  0  0
 10 11  1  0  0  0  0
 11 15  2  0  0  0  0
 11 16  1  0  0  0  0
 12 20  2  0  0  0  0
 12 21  1  0  0  0  0
 13 17  2  0  0  0  0
 15 18  1  0  0  0  0
 16 19  2  0  0  0  0
 18 22  2  0  0  0  0
 19 22  1  0  0  0  0
 20 23  1  0  0  0  0
 21 24  2  0  0  0  0
 23 25  2  0  0  0  0
 24 25  1  0  0  0  0
M  END
