
 OpenBabel10141417483D

 22 24  0  0  0  0  0  0  0  0999 V2000
   -0.0294    1.2261   -1.7162 C   0  0  0  0  0  0  0  0  0  0  0  0
   -4.0375    0.7032    0.9969 C   0  0  0  0  0  0  0  0  0  0  0  0
   -4.3237    0.3979   -1.3548 C   0  0  0  0  0  0  0  0  0  0  0  0
    1.0349   -5.9207   -2.6456 C   0  0  0  0  0  0  0  0  0  0  0  0
   -1.8607   -1.0495   -6.7975 C   0  0  0  0  0  0  0  0  0  0  0  0
   -0.1533   -5.5091   -2.0508 C   0  0  0  0  0  0  0  0  0  0  0  0
   -2.6565   -1.0132   -5.6711 C   0  0  0  0  0  0  0  0  0  0  0  0
    1.8212   -5.0001   -3.3349 C   0  0  0  0  0  0  0  0  0  0  0  0
   -0.5079   -1.3724   -6.6785 C   0  0  0  0  0  0  0  0  0  0  0  0
   -0.5414   -4.1676   -2.1070 C   0  0  0  0  0  0  0  0  0  0  0  0
   -2.0935   -1.2622   -4.4207 C   0  0  0  0  0  0  0  0  0  0  0  0
    2.2472   -2.6746   -4.2257 C   0  0  0  0  0  0  0  0  0  0  0  0
    1.5208   -2.1347   -5.4698 C   0  0  0  0  0  0  0  0  0  0  0  0
   -0.9523   -1.1839   -1.6451 C   0  0  0  0  0  0  0  0  0  0  0  0
   -2.1021    0.7714   -0.4110 C   0  0  0  0  0  0  0  0  0  0  0  0
   -1.2804    0.3392   -1.6559 C   0  0  3  0  0  0  0  0  0  0  0  0
    1.4359   -3.6512   -3.4081 C   0  0  0  0  0  0  0  0  0  0  0  0
    0.0792   -1.6421   -5.4204 C   0  0  0  0  0  0  0  0  0  0  0  0
    0.2643   -3.2133   -2.7475 C   0  0  0  0  0  0  0  0  0  0  0  0
   -0.7169   -1.5189   -4.2618 C   0  0  0  0  0  0  0  0  0  0  0  0
   -0.1394   -1.7371   -2.8666 C   0  0  0  0  0  0  0  0  0  0  0  0
   -3.4290    0.1522   -0.2223 N   0  0  0  0  0  0  0  0  0  0  0  0
  6  4  2  0  0  0  0
  7  5  2  0  0  0  0
  8  4  1  0  0  0  0
  9  5  1  0  0  0  0
 10  6  1  0  0  0  0
 11  7  1  0  0  0  0
 13 12  1  0  0  0  0
 16  1  1  0  0  0  0
 16 14  1  0  0  0  0
 16 15  1  0  0  0  0
 17  8  2  0  0  0  0
 17 12  1  0  0  0  0
 18  9  2  0  0  0  0
 18 13  1  0  0  0  0
 19 10  2  0  0  0  0
 19 17  1  0  0  0  0
 20 11  2  0  0  0  0
 20 18  1  0  0  0  0
 21 14  1  0  0  0  0
 21 19  1  0  0  0  0
 21 20  1  0  0  0  0
 22  2  1  0  0  0  0
 22  3  1  0  0  0  0
 22 15  1  0  0  0  0
M  END
