
 OpenBabel10141417513D

 60 65  0  0  0  0  0  0  0  0999 V2000
    3.8667    7.8564   -0.5670 C   0  0  0  0  0  0  0  0  0  0  0  0
    4.4054    8.1169   -1.8038 C   0  0  0  0  0  0  0  0  0  0  0  0
    5.9181    8.3625   -2.0011 C   0  0  2  0  0  0  0  0  0  0  0  0
    6.6189    8.7870   -0.6919 C   0  0  0  0  0  0  0  0  0  0  0  0
    5.6766    8.9135    0.5272 C   0  0  2  0  0  0  0  0  0  0  0  0
    4.7955    7.6323    0.6133 C   0  0  0  0  0  0  0  0  0  0  0  0
    2.3996    7.7589   -0.2443 C   0  0  2  0  0  0  0  0  0  0  0  0
    1.9008   10.2679    0.5244 C   0  0  2  0  0  0  0  0  0  0  0  0
    1.9403    8.7880    0.9220 C   0  0  0  0  0  0  0  0  0  0  0  0
    3.6043    7.9658   -3.0743 C   0  0  0  0  0  0  0  0  0  0  0  0
    1.1691   11.3222    1.5192 C   0  0  2  0  0  0  0  0  0  0  0  0
    3.3533   10.9232    0.1580 C   0  0  1  0  0  0  0  0  0  0  0  0
    3.0750   12.1651   -0.8317 C   0  0  1  0  0  0  0  0  0  0  0  0
    2.3138   13.1303    0.1876 C   0  0  1  0  0  0  0  0  0  0  0  0
    0.9940   12.7480    0.8329 C   0  0  0  0  0  0  0  0  0  0  0  0
    4.8286   10.3413    0.6639 C   0  0  2  0  0  0  0  0  0  0  0  0
    5.5048    6.2461    0.3797 C   0  0  0  0  0  0  0  0  0  0  0  0
    4.1945    7.4711    2.0363 C   0  0  0  0  0  0  0  0  0  0  0  0
    1.4039    8.3961    1.9622 O   0  0  0  0  0  0  0  0  0  0  0  0
    2.0318    6.3936   -0.1285 O   0  0  0  0  0  0  0  0  0  0  0  0
    0.6165    6.2324   -0.2510 C   0  0  0  0  0  0  0  0  0  0  0  0
    0.8213   10.0388   -0.5790 C   0  0  0  0  0  0  0  0  0  0  0  0
    1.9156   11.4775    2.7447 O   0  0  0  0  0  0  0  0  0  0  0  0
    1.3043   12.3676    3.6844 C   0  0  0  0  0  0  0  0  0  0  0  0
    2.4236   14.2122   -0.7894 O   0  0  0  0  0  0  0  0  0  0  0  0
    3.7737   13.5947   -1.0768 C   0  0  0  0  0  0  0  0  0  0  0  0
    2.4513   11.7678   -2.1261 O   0  0  0  0  0  0  0  0  0  0  0  0
    1.2370   12.3156   -2.4757 C   0  0  0  0  0  0  0  0  0  0  0  0
    0.1969   12.2407   -1.8420 O   0  0  0  0  0  0  0  0  0  0  0  0
    1.1458   12.9582   -3.8061 C   0  0  0  0  0  0  0  0  0  0  0  0
    5.7922   11.4412    0.8758 O   0  0  0  0  0  0  0  0  0  0  0  0
    7.7046   13.3128    1.6188 C   0  0  0  0  0  0  0  0  0  0  0  0
    8.8012   14.1118    1.9621 C   0  0  0  0  0  0  0  0  0  0  0  0
    9.8520   14.3042    1.0667 C   0  0  0  0  0  0  0  0  0  0  0  0
    9.8135   13.6846   -0.1873 C   0  0  0  0  0  0  0  0  0  0  0  0
    8.7138   12.9288   -0.5559 C   0  0  0  0  0  0  0  0  0  0  0  0
    7.6202   12.7898    0.2927 C   0  0  0  0  0  0  0  0  0  0  0  0
    6.4529   11.9582   -0.1455 C   0  0  0  0  0  0  0  0  0  0  0  0
    6.1592   11.7365   -1.2480 O   0  0  0  0  0  0  0  0  0  0  0  0
    6.5706    8.9062    1.6823 O   0  0  0  0  0  0  0  0  0  0  0  0
   12.7882   10.5490   -3.3585 C   0  0  0  0  0  0  0  0  0  0  0  0
   12.8325   11.7439   -4.0490 C   0  0  0  0  0  0  0  0  0  0  0  0
   11.6495   12.2735   -4.5661 C   0  0  0  0  0  0  0  0  0  0  0  0
   10.4156   11.6244   -4.3588 C   0  0  0  0  0  0  0  0  0  0  0  0
   10.3757   10.3359   -3.8007 C   0  0  0  0  0  0  0  0  0  0  0  0
   11.6066    9.8176   -3.3794 C   0  0  0  0  0  0  0  0  0  0  0  0
    9.0636    9.5780   -3.4866 C   0  0  1  0  0  0  0  0  0  0  0  0
    8.0521    9.5376   -4.6633 C   0  0  2  0  0  0  0  0  0  0  0  0
    6.6979    8.9409   -4.1884 C   0  0  0  0  0  0  0  0  0  0  0  0
    6.2748    9.3935   -2.9709 O   0  0  0  0  0  0  0  0  0  0  0  0
    6.1363    8.0454   -4.8083 O   0  0  0  0  0  0  0  0  0  0  0  0
    8.6030    8.7356   -5.7358 O   0  0  0  0  0  0  0  0  0  0  0  0
    9.2562    8.2032   -2.9117 N   0  0  0  0  0  0  0  0  0  0  0  0
    9.9454    7.8189   -1.8444 C   0  0  0  0  0  0  0  0  0  0  0  0
   10.1884    6.5136   -1.8768 O   0  0  0  0  0  0  0  0  0  0  0  0
   11.5591    5.9899   -1.8799 C   0  0  0  0  0  0  0  0  0  0  0  0
   11.9710    5.7752   -3.3470 C   0  0  0  0  0  0  0  0  0  0  0  0
   12.6110    6.8477   -1.1505 C   0  0  0  0  0  0  0  0  0  0  0  0
   11.5149    4.6091   -1.2129 C   0  0  0  0  0  0  0  0  0  0  0  0
   10.3429    8.5578   -0.9608 O   0  0  0  0  0  0  0  0  0  0  0  0
  1  2  2  0  0  0  0
  1  6  1  0  0  0  0
  2 10  1  0  0  0  0
  3  2  1  0  0  0  0
  3  4  1  0  0  0  0
  3 50  1  6  0  0  0
  5  4  1  0  0  0  0
  5  6  1  0  0  0  0
  5 16  1  0  0  0  0
  5 40  1  1  0  0  0
  6 17  1  0  0  0  0
  6 18  1  0  0  0  0
  7  1  1  0  0  0  0
  7  9  1  0  0  0  0
  7 20  1  1  0  0  0
  8  9  1  0  0  0  0
  8 11  1  0  0  0  0
  8 22  1  1  0  0  0
  9 19  2  0  0  0  0
 11 15  1  0  0  0  0
 11 23  1  1  0  0  0
 12  8  1  1  0  0  0
 12 13  1  0  0  0  0
 13 14  1  0  0  0  0
 13 26  1  0  0  0  0
 13 27  1  6  0  0  0
 14 15  1  1  0  0  0
 14 25  1  0  0  0  0
 16 12  1  0  0  0  0
 16 31  1  6  0  0  0
 20 21  1  0  0  0  0
 23 24  1  0  0  0  0
 26 25  1  0  0  0  0
 27 28  1  0  0  0  0
 28 29  2  0  0  0  0
 28 30  1  0  0  0  0
 32 33  2  0  0  0  0
 32 37  1  0  0  0  0
 33 34  1  0  0  0  0
 34 35  2  0  0  0  0
 35 36  1  0  0  0  0
 36 37  2  0  0  0  0
 37 38  1  0  0  0  0
 38 31  1  0  0  0  0
 38 39  2  0  0  0  0
 41 42  2  0  0  0  0
 41 46  1  0  0  0  0
 42 43  1  0  0  0  0
 43 44  2  0  0  0  0
 44 45  1  0  0  0  0
 45 46  2  0  0  0  0
 47 53  1  6  0  0  0
 47 48  1  0  0  0  0
 47 45  1  0  0  0  0
 48 49  1  1  0  0  0
 48 52  1  0  0  0  0
 49 50  1  0  0  0  0
 49 51  2  0  0  0  0
 53 54  1  0  0  0  0
 54 55  1  0  0  0  0
 54 60  2  0  0  0  0
 55 56  1  0  0  0  0
 56 57  1  0  0  0  0
 56 58  1  0  0  0  0
 56 59  1  0  0  0  0
M  END
