62859
 OpenBabel10141417533D

 31 28  0  0  1  0  0  0  0  0999 V2000
   -7.7008   -8.8761   -1.2197 Ca  0  2  0  0  0 15  0  0  0  0  0  0
  -23.6892   -1.6446  -15.0494 O   0  0  0  0  0  0  0  0  0  0  0  0
  -23.8629   -0.1439  -17.3456 O   0  0  0  0  0  0  0  0  0  0  0  0
   -3.9312   -9.1753   -0.8837 O   0  0  0  0  0  0  0  0  0  0  0  0
   -4.1519   -6.1890    1.2295 O   0  0  0  0  0  0  0  0  0  0  0  0
  -23.7364    0.1854  -13.0535 O   0  0  0  0  0  0  0  0  0  0  0  0
   -3.3822   -9.8322    1.9125 O   0  0  0  0  0  0  0  0  0  0  0  0
  -22.5871   -2.5036  -17.5736 O   0  0  0  0  0  0  0  0  0  0  0  0
   -6.9813   -7.3978    0.4186 O   0  0  0  0  0  0  0  0  0  0  0  0
  -21.4965    1.8753  -13.8882 O   0  0  0  0  0  0  0  0  0  0  0  0
   -0.6045  -10.0272    2.1377 O   0  0  0  0  0  0  0  0  0  0  0  0
  -19.7631   -2.4999  -17.7393 O   0  0  0  0  0  0  0  0  0  0  0  0
   -5.5044   -7.2804    3.2766 O   0  0  0  0  0  0  0  0  0  0  0  0
  -22.9837    2.3296  -16.8296 O   0  5  0  0  0  0  0  0  0  0  0  0
  -22.6718    4.1359  -15.5241 O   0  0  0  0  0  0  0  0  0  0  0  0
   -0.9051  -11.9978    0.5477 O   0  5  0  0  0  0  0  0  0  0  0  0
   -2.1095  -10.8252   -1.0213 O   0  0  0  0  0  0  0  0  0  0  0  0
  -22.8400   -0.4773  -15.1729 C   0  0  1  0  0  0  0  0  0  0  0  0
  -22.5894   -0.2434  -16.6700 C   0  0  1  0  0  0  0  0  0  0  0  0
   -3.3100   -8.2453    0.0358 C   0  0  1  0  0  0  0  0  0  0  0  0
   -4.4867   -7.2864    0.3947 C   0  0  1  0  0  0  0  0  0  0  0  0
  -23.5529    0.6877  -14.4167 C   0  0  2  0  0  0  0  0  0  0  0  0
   -2.5360   -8.9162    1.2165 C   0  0  2  0  0  0  0  0  0  0  0  0
  -21.8384   -1.2846  -17.4855 C   0  0  1  0  0  0  0  0  0  0  0  0
   -5.7437   -8.0380    0.9252 C   0  0  1  0  0  0  0  0  0  0  0  0
  -22.8439    2.0537  -14.4052 C   0  0  3  0  0  0  0  0  0  0  0  0
   -1.2428   -9.6742    0.8766 C   0  0  3  0  0  0  0  0  0  0  0  0
  -20.4418   -1.5377  -16.9323 C   0  0  0  0  0  0  0  0  0  0  0  0
   -5.7897   -8.3723    2.4285 C   0  0  0  0  0  0  0  0  0  0  0  0
  -22.8660    2.8758  -15.7654 C   0  0  0  0  0  0  0  0  0  0  0  0
   -1.4318  -10.9692    0.0387 C   0  0  0  0  0  0  0  0  0  0  0  0
 10 26  1  0  0  0  0
 11 27  1  0  0  0  0
 12 28  1  0  0  0  0
 13 29  1  0  0  0  0
 14 30  1  0  0  0  0
 15 30  2  0  0  0  0
 16 31  1  0  0  0  0
 17 31  2  0  0  0  0
 18  2  1  6  0  0  0
 18 22  1  0  0  0  0
 19 18  1  0  0  0  0
 19  3  1  6  0  0  0
 20  4  1  6  0  0  0
 20 23  1  0  0  0  0
 21 20  1  0  0  0  0
 21  5  1  1  0  0  0
 22  6  1  1  0  0  0
 22 26  1  0  0  0  0
 23  7  1  6  0  0  0
 23 27  1  0  0  0  0
 24 28  1  1  0  0  0
 24 19  1  0  0  0  0
 24  8  1  0  0  0  0
 25 29  1  1  0  0  0
 25 21  1  0  0  0  0
 25  9  1  0  0  0  0
 26 30  1  0  0  0  0
 27 31  1  0  0  0  0
M  CHG  3   1   2  14  -1  16  -1
M  END
