
 OpenBabel10141417493D

 30 32  0  0  1  0  0  0  0  0999 V2000
    4.1437   -0.5122    3.5488 C   0  0  0  0  0  0  0  0  0  0  0  0
    4.1064   -2.9929    5.1991 C   0  0  0  0  0  0  0  0  0  0  0  0
    3.3042   -4.1701    2.9480 C   0  0  0  0  0  0  0  0  0  0  0  0
    3.2965   -3.6738    1.4958 C   0  0  0  0  0  0  0  0  0  0  0  0
    4.3077   -0.4719    5.0801 C   0  0  0  0  0  0  0  0  0  0  0  0
    3.5459   -3.8967    6.0197 C   0  0  0  0  0  0  0  0  0  0  0  0
    4.8889   -1.7696    5.6525 C   0  0  0  0  0  0  0  0  0  0  0  0
    3.6377   -3.8751    7.4708 C   0  0  0  0  0  0  0  0  0  0  0  0
    2.7698   -4.3892    8.3537 C   0  0  0  0  0  0  0  0  0  0  0  0
    1.5351   -5.1041    8.0212 C   0  0  0  0  0  0  0  0  0  0  0  0
    2.9351   -4.1439    9.8452 C   0  0  0  0  0  0  0  0  0  0  0  0
    1.5595   -6.2671    7.3574 C   0  0  0  0  0  0  0  0  0  0  0  0
    1.6913   -3.4759   10.4569 C   0  0  2  0  0  0  0  0  0  0  0  0
    0.3952   -4.1890   10.0673 C   0  0  0  0  0  0  0  0  0  0  0  0
    1.6251   -2.0968   10.0875 O   0  0  0  0  0  0  0  0  0  0  0  0
    5.8529   -1.8826    0.9471 C   0  0  0  0  0  0  0  0  0  0  0  0
    4.4160   -1.4960    0.5756 C   0  0  2  0  0  0  0  0  0  0  0  0
    4.1414   -1.8670   -0.9228 C   0  0  0  0  0  0  0  0  0  0  0  0
    5.0288   -1.1269   -1.9559 C   0  0  0  0  0  0  0  0  0  0  0  0
    7.1128   -1.1694   -4.3415 C   0  0  0  0  0  0  0  0  0  0  0  0
    5.1727   -1.4703   -5.8858 C   0  0  0  0  0  0  0  0  0  0  0  0
    4.7661   -1.6106   -3.3993 C   0  0  0  0  0  0  0  0  0  0  0  0
    3.3341   -2.1140    1.5319 C   0  0  2  0  0  0  0  0  0  0  0  0
    4.0223   -3.0426    3.6843 C   0  0  2  0  0  0  0  0  0  0  0  0
    3.3734   -1.7677    3.0748 C   0  0  2  0  0  0  0  0  0  0  0  0
    1.8948   -1.5902    3.5479 C   0  0  0  0  0  0  0  0  0  0  0  0
    5.6088   -0.9357   -4.5135 C   0  0  0  0  0  0  0  0  0  0  0  0
    5.3582    0.4703   -4.5281 O   0  0  0  0  0  0  0  0  0  0  0  0
    0.2875   -4.4190    8.5549 C   0  0  2  0  0  0  0  0  0  0  0  0
   -0.8872   -5.1832    8.2898 O   0  0  0  0  0  0  0  0  0  0  0  0
  1  5  1  0  0  0  0
  2  6  2  0  0  0  0
  2  7  1  0  0  0  0
  3  4  1  0  0  0  0
  5  7  1  0  0  0  0
  6  8  1  0  0  0  0
  8  9  2  0  0  0  0
  9 10  1  0  0  0  0
  9 11  1  0  0  0  0
 10 29  1  0  0  0  0
 10 12  2  0  0  0  0
 11 13  1  0  0  0  0
 13 14  1  0  0  0  0
 13 15  1  6  0  0  0
 17 18  1  1  0  0  0
 17 16  1  0  0  0  0
 18 19  1  0  0  0  0
 19 22  1  0  0  0  0
 22 27  1  0  0  0  0
 23  4  1  1  0  0  0
 23 17  1  0  0  0  0
 24 25  1  0  0  0  0
 24  2  1  6  0  0  0
 24  3  1  0  0  0  0
 25 23  1  0  0  0  0
 25  1  1  0  0  0  0
 25 26  1  6  0  0  0
 27 20  1  0  0  0  0
 27 21  1  0  0  0  0
 27 28  1  0  0  0  0
 29 14  1  0  0  0  0
 29 30  1  1  0  0  0
M  END
