
 OpenBabel10141417493D

  3  0  0  0  0  0  0  0  0  0999 V2000
    0.9888   -0.0030   -0.0402 Ca  0  2  0  0  0 15  0  0  0  0  0  0
   -1.0640   -0.7387    1.2421 Cl  0  5  0  0  0  0  0  0  0  0  0  0
    3.0416    0.7327   -1.3225 Cl  0  5  0  0  0  0  0  0  0  0  0  0
M  CHG  3   1   2   2  -1   3  -1
M  END
