
 OpenBabel10141417493D

 30 33  0  0  1  0  0  0  0  0999 V2000
    0.5029   -0.1916   -1.6724 C   0  0  1  0  0  0  0  0  0  0  0  0
    1.0680   -1.5499   -1.2421 C   0  0  0  0  0  0  0  0  0  0  0  0
   -0.0287   -2.5799   -0.9737 C   0  0  1  0  0  0  0  0  0  0  0  0
   -1.1051   -2.0437   -0.0167 C   0  0  0  0  0  0  0  0  0  0  0  0
   -1.6238   -0.6906   -0.4577 C   0  0  0  0  0  0  0  0  0  0  0  0
   -0.5705    0.2912   -0.7106 C   0  0  0  0  0  0  0  0  0  0  0  0
   -4.6979   -0.4334   -3.1342 C   0  0  0  0  0  0  0  0  0  0  0  0
   -2.9441   -0.4988   -0.6881 C   0  0  0  0  0  0  0  0  0  0  0  0
   -3.5321    0.7036   -1.2161 C   0  0  0  0  0  0  0  0  0  0  0  0
   -4.3277    0.7699   -2.3089 C   0  0  0  0  0  0  0  0  0  0  0  0
   -4.4134    1.2009   -5.1098 C   0  0  0  0  0  0  0  0  0  0  0  0
   -4.4168   -0.2496   -4.6259 C   0  0  0  0  0  0  0  0  0  0  0  0
   -4.9097    2.0950   -2.7838 C   0  0  1  0  0  0  0  0  0  0  0  0
   -5.3259    2.1571   -4.3022 C   0  0  1  0  0  0  0  0  0  0  0  0
   -5.0169    3.6541   -4.7439 C   0  0  2  0  0  0  0  0  0  0  0  0
   -3.9737    3.2965   -2.6067 C   0  0  0  0  0  0  0  0  0  0  0  0
   -4.6376    4.3685   -3.4365 C   0  0  0  0  0  0  0  0  0  0  0  0
   -6.0596    4.4736   -5.5583 C   0  0  1  0  0  0  0  0  0  0  0  0
   -6.3959    3.9507   -6.9443 C   0  0  0  0  0  0  0  0  0  0  0  0
   -5.5920    3.2900   -7.8002 C   0  0  0  0  0  0  0  0  0  0  0  0
   -6.0366    2.7992   -9.1543 C   0  0  1  0  0  0  0  0  0  0  0  0
   -4.9077    2.8559  -10.0212 O   0  0  0  0  0  0  0  0  0  0  0  0
   -6.5820    1.3927   -9.1728 C   0  0  0  0  0  0  0  0  0  0  0  0
   -7.0776    0.7807  -10.4649 C   0  0  0  0  0  0  0  0  0  0  0  0
   -8.0578    1.1346   -9.3847 C   0  0  0  0  0  0  0  0  0  0  0  0
   -0.6147   -3.0113   -2.2036 O   0  0  0  0  0  0  0  0  0  0  0  0
   -6.7977    1.7144   -4.4487 C   0  0  0  0  0  0  0  0  0  0  0  0
    1.5838    0.7355   -1.7671 O   0  0  0  0  0  0  0  0  0  0  0  0
   -5.6333    5.9540   -5.6797 C   0  0  0  0  0  0  0  0  0  0  0  0
   -0.5620    1.4937   -0.0989 C   0  0  0  0  0  0  0  0  0  0  0  0
  1  2  1  0  0  0  0
  1  6  1  0  0  0  0
  1 28  1  1  0  0  0
  2  3  1  0  0  0  0
  3  4  1  0  0  0  0
  3 26  1  6  0  0  0
  4  5  1  0  0  0  0
  5  8  2  0  0  0  0
  6  5  1  0  0  0  0
  6 30  2  0  0  0  0
  7 10  1  0  0  0  0
  8  9  1  0  0  0  0
  9 10  2  0  0  0  0
 11 12  1  0  0  0  0
 11 14  1  0  0  0  0
 12  7  1  0  0  0  0
 13 10  1  1  0  0  0
 13 16  1  0  0  0  0
 14 13  1  0  0  0  0
 14 27  1  6  0  0  0
 15 14  1  0  0  0  0
 15 17  1  1  0  0  0
 15 18  1  0  0  0  0
 16 17  1  0  0  0  0
 18 19  1  1  0  0  0
 18 29  1  0  0  0  0
 19 20  2  0  0  0  0
 21 20  1  1  0  0  0
 21 22  1  0  0  0  0
 21 23  1  0  0  0  0
 23 24  1  0  0  0  0
 23 25  1  0  0  0  0
 25 24  1  0  0  0  0
M  END
