
 OpenBabel10141417483D

 29 31  0  0  1  0  0  0  0  0999 V2000
    4.1724   -0.3933    3.3127 C   0  0  0  0  0  0  0  0  0  0  0  0
    4.0428   -2.7616    5.1036 C   0  0  0  0  0  0  0  0  0  0  0  0
    3.2376   -4.0308    2.9209 C   0  0  0  0  0  0  0  0  0  0  0  0
    3.3001   -3.6223    1.4497 C   0  0  0  0  0  0  0  0  0  0  0  0
    4.2966   -0.2365    4.8421 C   0  0  0  0  0  0  0  0  0  0  0  0
    3.5953   -3.7118    5.9417 C   0  0  0  0  0  0  0  0  0  0  0  0
    4.7917   -1.5127    5.5386 C   0  0  0  0  0  0  0  0  0  0  0  0
    3.7663   -3.7042    7.3812 C   0  0  0  0  0  0  0  0  0  0  0  0
    4.4056   -4.6525    8.0874 C   0  0  0  0  0  0  0  0  0  0  0  0
    5.0737   -5.8178    7.5114 C   0  0  0  0  0  0  0  0  0  0  0  0
    4.4799   -4.6301    9.6031 C   0  0  0  0  0  0  0  0  0  0  0  0
    4.5714   -7.1384    8.0370 C   0  0  0  0  0  0  0  0  0  0  0  0
    6.0957   -5.7118    6.6535 C   0  0  0  0  0  0  0  0  0  0  0  0
    4.0059   -5.9575   10.2219 C   0  0  2  0  0  0  0  0  0  0  0  0
    4.6527   -7.1834    9.5651 C   0  0  0  0  0  0  0  0  0  0  0  0
    2.5821   -6.0624   10.1418 O   0  0  0  0  0  0  0  0  0  0  0  0
    5.6481   -1.6334    0.4926 C   0  0  0  0  0  0  0  0  0  0  0  0
    4.1401   -1.4306    0.3010 C   0  0  2  0  0  0  0  0  0  0  0  0
    3.6921   -1.9741   -1.0961 C   0  0  0  0  0  0  0  0  0  0  0  0
    4.3543   -1.2986   -2.3090 C   0  0  0  0  0  0  0  0  0  0  0  0
    3.9379   -1.9160   -6.1720 C   0  0  0  0  0  0  0  0  0  0  0  0
    4.3309    0.2435   -4.9765 C   0  0  0  0  0  0  0  0  0  0  0  0
    3.8397   -1.8795   -3.6408 C   0  0  0  0  0  0  0  0  0  0  0  0
    3.2333   -2.0651    1.4090 C   0  0  2  0  0  0  0  0  0  0  0  0
    3.9633   -2.8713    3.5952 C   0  0  2  0  0  0  0  0  0  0  0  0
    3.3314   -1.6243    2.9216 C   0  0  2  0  0  0  0  0  0  0  0  0
    1.8702   -1.3664    3.4099 C   0  0  0  0  0  0  0  0  0  0  0  0
    4.5046   -1.2739   -4.8997 C   0  0  0  0  0  0  0  0  0  0  0  0
    5.9094   -1.5387   -4.8655 O   0  0  0  0  0  0  0  0  0  0  0  0
  1  5  1  0  0  0  0
  2  6  2  0  0  0  0
  2  7  1  0  0  0  0
  3  4  1  0  0  0  0
  5  7  1  0  0  0  0
  6  8  1  0  0  0  0
  8  9  2  0  0  0  0
  9 10  1  0  0  0  0
  9 11  1  0  0  0  0
 10 12  1  0  0  0  0
 10 13  2  0  0  0  0
 11 14  1  0  0  0  0
 12 15  1  0  0  0  0
 14 15  1  0  0  0  0
 14 16  1  6  0  0  0
 18 19  1  1  0  0  0
 18 17  1  0  0  0  0
 19 20  1  0  0  0  0
 20 23  1  0  0  0  0
 23 28  1  0  0  0  0
 24  4  1  1  0  0  0
 24 18  1  0  0  0  0
 25 26  1  0  0  0  0
 25  2  1  6  0  0  0
 25  3  1  0  0  0  0
 26 24  1  0  0  0  0
 26  1  1  0  0  0  0
 26 27  1  6  0  0  0
 28 21  1  0  0  0  0
 28 22  1  0  0  0  0
 28 29  1  0  0  0  0
M  END
