
 OpenBabel10141417503D

 31 34  0  0  1  0  0  0  0  0999 V2000
   -0.1559    1.5784    0.0931 C   0  0  1  0  0  0  0  0  0  0  0  0
    1.0097    0.5959    0.0397 C   0  0  1  0  0  0  0  0  0  0  0  0
    0.5542   -0.7848   -0.4405 C   0  0  2  0  0  0  0  0  0  0  0  0
   -0.6619   -1.2652    0.3872 C   0  0  1  0  0  0  0  0  0  0  0  0
   -1.7017   -0.2734    0.4119 O   0  0  0  0  0  0  0  0  0  0  0  0
   -1.2815    0.9858    0.9531 C   0  0  2  0  0  0  0  0  0  0  0  0
   -2.4938    1.9293    1.0081 C   0  0  0  0  0  0  0  0  0  0  0  0
    2.0189    1.1224   -0.8368 O   0  0  0  0  0  0  0  0  0  0  0  0
   -1.2325   -2.5516   -0.1866 C   0  0  0  0  0  0  0  0  0  0  0  0
    1.6920   -1.6599   -0.3523 O   0  0  0  0  0  0  0  0  0  0  0  0
    0.3025    2.8313    0.6156 O   0  0  0  0  0  0  0  0  0  0  0  0
   -2.1801    3.1986    1.5692 O   0  0  0  0  0  0  0  0  0  0  0  0
   -0.7682   -3.7943    0.2586 C   0  0  0  0  0  0  0  0  0  0  0  0
   -1.2657   -4.9804   -0.2879 C   0  0  0  0  0  0  0  0  0  0  0  0
   -2.2480   -4.9604   -1.2889 C   0  0  0  0  0  0  0  0  0  0  0  0
   -2.7309   -3.7184   -1.7457 C   0  0  0  0  0  0  0  0  0  0  0  0
   -2.2076   -2.5316   -1.1940 C   0  0  0  0  0  0  0  0  0  0  0  0
   -2.7469   -6.2647   -1.8491 C   0  0  0  0  0  0  0  0  0  0  0  0
   -3.8413   -3.6003   -2.7734 C   0  0  0  0  0  0  0  0  0  0  0  0
   -5.2223   -3.5493   -2.1723 C   0  0  0  0  0  0  0  0  0  0  0  0
   -6.5493   -4.1203   -3.0867 S   0  0  0  0  0  0  0  0  0  0  0  0
   -7.6847   -3.7765   -1.8404 C   0  0  0  0  0  0  0  0  0  0  0  0
   -7.0489   -3.1942   -0.7602 C   0  0  0  0  0  0  0  0  0  0  0  0
   -5.6400   -3.0608   -0.9505 C   0  0  0  0  0  0  0  0  0  0  0  0
   -9.1178   -4.0867   -2.0227 C   0  0  0  0  0  0  0  0  0  0  0  0
  -10.1032   -3.3170   -1.3797 C   0  0  0  0  0  0  0  0  0  0  0  0
  -11.4644   -3.6094   -1.5443 C   0  0  0  0  0  0  0  0  0  0  0  0
  -11.8415   -4.6710   -2.3527 C   0  0  0  0  0  0  0  0  0  0  0  0
  -10.8948   -5.4499   -2.9968 C   0  0  0  0  0  0  0  0  0  0  0  0
   -9.5369   -5.1611   -2.8276 C   0  0  0  0  0  0  0  0  0  0  0  0
  -13.1448   -4.9497   -2.5128 F   0  0  0  0  0  0  0  0  0  0  0  0
  1  2  1  0  0  0  0
  1  6  1  0  0  0  0
  1 11  1  1  0  0  0
  2  3  1  0  0  0  0
  2  8  1  6  0  0  0
  3  4  1  0  0  0  0
  3 10  1  1  0  0  0
  4  5  1  0  0  0  0
  4  9  1  6  0  0  0
  5  6  1  0  0  0  0
  6  7  1  6  0  0  0
  7 12  1  0  0  0  0
  9 13  2  0  0  0  0
  9 17  1  0  0  0  0
 13 14  1  0  0  0  0
 14 15  2  0  0  0  0
 15 16  1  0  0  0  0
 15 18  1  0  0  0  0
 16 17  2  0  0  0  0
 16 19  1  0  0  0  0
 19 20  1  0  0  0  0
 20 21  1  0  0  0  0
 20 24  2  0  0  0  0
 21 22  1  0  0  0  0
 22 23  2  0  0  0  0
 22 25  1  0  0  0  0
 23 24  1  0  0  0  0
 25 26  2  0  0  0  0
 25 30  1  0  0  0  0
 26 27  1  0  0  0  0
 27 28  2  0  0  0  0
 28 29  1  0  0  0  0
 28 31  1  0  0  0  0
 29 30  2  0  0  0  0
M  END
