796
 OpenBabel10141417483D

 33 37  0  0  0  0  0  0  0  0999 V2000
    2.5215   -0.4434    1.5736 O   0  0  0  0  0  0  0  0  0  0  0  0
   -2.8141   -4.6340    0.1337 O   0  0  0  0  0  0  0  0  0  0  0  0
   -0.6031   -4.6363    0.0298 O   0  0  0  0  0  0  0  0  0  0  0  0
    0.6733   -1.7051    0.7508 N   0  0  0  0  0  0  0  0  0  0  0  0
    0.2837    0.0885    2.0131 N   0  0  0  0  0  0  0  0  0  0  0  0
   -2.4179    1.0961   -5.8069 N   0  0  0  0  0  0  0  0  0  0  0  0
   -1.6059    0.7376   -3.7318 N   0  0  0  0  0  0  0  0  0  0  0  0
   -3.3441    0.7261   -4.9144 N   0  0  0  0  0  0  0  0  0  0  0  0
   -2.9058    0.4836   -3.6780 N   0  0  0  0  0  0  0  0  0  0  0  0
    1.4573   -2.4375   -0.2332 C   0  0  0  0  0  0  0  0  0  0  0  0
   -0.6756   -1.7734    1.0688 C   0  0  0  0  0  0  0  0  0  0  0  0
    1.4787   -1.7100   -1.5588 C   0  0  0  0  0  0  0  0  0  0  0  0
   -0.8858   -0.5633    1.7525 C   0  0  0  0  0  0  0  0  0  0  0  0
    1.2101   -0.6598    1.4752 C   0  0  0  0  0  0  0  0  0  0  0  0
   -1.7563   -2.6666    0.8655 C   0  0  0  0  0  0  0  0  0  0  0  0
    2.3868   -0.6676   -1.7604 C   0  0  0  0  0  0  0  0  0  0  0  0
    0.5593   -1.9948   -2.5746 C   0  0  0  0  0  0  0  0  0  0  0  0
    1.3457   -0.0914   -3.9021 C   0  0  0  0  0  0  0  0  0  0  0  0
   -2.1742   -0.1572    2.1333 C   0  0  0  0  0  0  0  0  0  0  0  0
    2.3059    0.1355   -2.8984 C   0  0  0  0  0  0  0  0  0  0  0  0
    0.5202   -1.2160   -3.7436 C   0  0  0  0  0  0  0  0  0  0  0  0
   -3.0342   -2.2432    1.3086 C   0  0  0  0  0  0  0  0  0  0  0  0
    1.2313    0.8669   -5.0369 C   0  0  0  0  0  0  0  0  0  0  0  0
   -3.2489   -1.0043    1.9008 C   0  0  0  0  0  0  0  0  0  0  0  0
    0.0199    1.4254   -5.5234 C   0  0  0  0  0  0  0  0  0  0  0  0
   -1.6243   -4.0311    0.3065 C   0  0  0  0  0  0  0  0  0  0  0  0
    2.9033    0.4580    2.6168 C   0  0  0  0  0  0  0  0  0  0  0  0
    2.4354    1.3145   -5.6409 C   0  0  0  0  0  0  0  0  0  0  0  0
    0.0696    2.4089   -6.5417 C   0  0  0  0  0  0  0  0  0  0  0  0
    2.4614    2.2982   -6.6324 C   0  0  0  0  0  0  0  0  0  0  0  0
   -1.3138    1.0785   -5.0314 C   0  0  0  0  0  0  0  0  0  0  0  0
    1.2750    2.8534   -7.0787 C   0  0  0  0  0  0  0  0  0  0  0  0
    3.0563   -0.2938    3.9299 C   0  0  0  0  0  0  0  0  0  0  0  0
  1 14  1  0  0  0  0
  1 27  1  0  0  0  0
  2 26  1  0  0  0  0
  3 26  2  0  0  0  0
  4 10  1  0  0  0  0
  4 11  1  0  0  0  0
  4 14  1  0  0  0  0
  5 13  1  0  0  0  0
  5 14  2  0  0  0  0
  6  8  1  0  0  0  0
  6 31  2  0  0  0  0
  7  9  2  0  0  0  0
  7 31  1  0  0  0  0
  8  9  1  0  0  0  0
 10 12  1  0  0  0  0
 11 13  1  0  0  0  0
 11 15  2  0  0  0  0
 12 16  2  0  0  0  0
 12 17  1  0  0  0  0
 13 19  2  0  0  0  0
 15 22  1  0  0  0  0
 15 26  1  0  0  0  0
 16 20  1  0  0  0  0
 17 21  2  0  0  0  0
 18 20  2  0  0  0  0
 18 21  1  0  0  0  0
 18 23  1  0  0  0  0
 19 24  1  0  0  0  0
 22 24  2  0  0  0  0
 23 25  1  0  0  0  0
 23 28  2  0  0  0  0
 25 29  2  0  0  0  0
 25 31  1  0  0  0  0
 27 33  1  0  0  0  0
 28 30  1  0  0  0  0
 29 32  1  0  0  0  0
 30 32  2  0  0  0  0
M  END
