1101
 OpenBabel10141417493D

 25 26  0  0  1  0  0  0  0  0999 V2000
    1.6785    0.7834   -1.0083 F   0  0  0  0  0  0  0  0  0  0  0  0
    5.6329    3.4241    0.2866 O   0  0  0  0  0  0  0  0  0  0  0  0
    8.5334    2.4457   -0.8079 O   0  0  0  0  0  0  0  0  0  0  0  0
    7.6951    4.2026   -2.5800 O   0  0  0  0  0  0  0  0  0  0  0  0
    6.5216   -0.3954    0.9510 O   0  0  0  0  0  0  0  0  0  0  0  0
    1.4424   -3.7891   -0.3930 O   0  0  0  0  0  0  0  0  0  0  0  0
    3.1621   -3.5116    1.0718 O   0  0  0  0  0  0  0  0  0  0  0  0
    5.1569    1.1309   -0.0663 N   0  0  0  0  0  0  0  0  0  0  0  0
    4.4227   -1.0855    0.4365 N   0  0  0  0  0  0  0  0  0  0  0  0
    2.2412   -1.7136   -0.0751 N   0  0  0  0  0  0  0  0  0  0  0  0
    7.1516    2.2571   -1.1891 C   0  0  2  0  0  0  0  0  0  0  0  0
    6.6767    3.5570   -1.8255 C   0  0  1  0  0  0  0  0  0  0  0  0
    6.2217    2.1302    0.0434 C   0  0  1  0  0  0  0  0  0  0  0  0
    6.2530    4.3629   -0.6033 C   0  0  1  0  0  0  0  0  0  0  0  0
    5.2567    5.4631   -0.9180 C   0  0  0  0  0  0  0  0  0  0  0  0
    3.9078    1.4435   -0.5771 C   0  0  0  0  0  0  0  0  0  0  0  0
    5.4220   -0.1387    0.4722 C   0  0  0  0  0  0  0  0  0  0  0  0
    2.9235    0.5442   -0.5641 C   0  0  0  0  0  0  0  0  0  0  0  0
    3.2604   -0.7857   -0.0204 C   0  0  0  0  0  0  0  0  0  0  0  0
    2.5430   -7.4012   -1.0409 C   0  0  0  0  0  0  0  0  0  0  0  0
    2.4103   -5.8824   -1.2180 C   0  0  0  0  0  0  0  0  0  0  0  0
    1.1986   -8.1230   -1.1498 C   0  0  0  0  0  0  0  0  0  0  0  0
    1.5134   -5.2169   -0.1689 C   0  0  0  0  0  0  0  0  0  0  0  0
    2.3787   -3.0402    0.2648 C   0  0  0  0  0  0  0  0  0  0  0  0
    1.3303   -9.6270   -0.9820 C   0  0  0  0  0  0  0  0  0  0  0  0
  1 18  1  0  0  0  0
  2 13  1  0  0  0  0
  2 14  1  0  0  0  0
  5 17  2  0  0  0  0
  6 23  1  0  0  0  0
  6 24  1  0  0  0  0
  7 24  2  0  0  0  0
  8 16  1  0  0  0  0
  8 17  1  0  0  0  0
  9 17  1  0  0  0  0
  9 19  2  0  0  0  0
 10 19  1  0  0  0  0
 10 24  1  0  0  0  0
 11 12  1  0  0  0  0
 11 13  1  0  0  0  0
 11  3  1  1  0  0  0
 12 14  1  0  0  0  0
 12  4  1  1  0  0  0
 13  8  1  6  0  0  0
 14 15  1  6  0  0  0
 16 18  2  0  0  0  0
 18 19  1  0  0  0  0
 20 21  1  0  0  0  0
 20 22  1  0  0  0  0
 21 23  1  0  0  0  0
 22 25  1  0  0  0  0
M  END
