3000502
 OpenBabel10141417513D

 93 95  0  0  1  0  0  0  0  0999 V2000
 -138.2444   24.0374   -2.2712 O   0  0  0  0  0  0  0  0  0  0  0  0
  -97.3269  181.6382   -3.0610 O   0  0  0  0  0  0  0  0  0  0  0  0
 -135.8061   21.5665   -1.3445 O   0  0  0  0  0  0  0  0  0  0  0  0
  -98.2403  179.8220    0.2024 O   0  0  0  0  0  0  0  0  0  0  0  0
 -137.4326   25.2917   -5.4022 O   0  0  0  0  0  0  0  0  0  0  0  0
  -93.8130  178.2859   -1.9104 O   0  0  0  0  0  0  0  0  0  0  0  0
 -134.1181   25.3660    1.3238 O   0  0  0  0  0  0  0  0  0  0  0  0
  -96.5772  177.7787    4.3819 O   0  0  0  0  0  0  0  0  0  0  0  0
 -133.7240   23.7640   -2.7217 O   0  0  0  0  0  0  0  0  0  0  0  0
 -135.6711   27.4881   -2.1019 O   0  0  0  0  0  0  0  0  0  0  0  0
  -96.1525  176.1288    0.2318 O   0  0  0  0  0  0  0  0  0  0  0  0
 -133.5734   27.9508   -0.9893 O   0  0  0  0  0  0  0  0  0  0  0  0
  -92.3423  178.2212    5.5692 O   0  0  0  0  0  0  0  0  0  0  0  0
 -136.4376   19.6278    3.4524 O   0  0  0  0  0  0  0  0  0  0  0  0
  -98.3490  182.3579    1.2498 O   0  0  0  0  0  0  0  0  0  0  0  0
 -140.1851   23.7834    0.0858 N   0  0  0  0  0  0  0  0  0  0  0  0
  -94.9007  183.4971    0.2324 N   0  0  0  0  0  0  0  0  0  0  0  0
 -137.3882   22.5586   -0.0290 N   0  0  0  0  0  0  0  0  0  0  0  0
  -96.1649  180.8740    0.2829 N   0  0  0  0  0  0  0  0  0  0  0  0
 -139.2076   23.7889    2.2333 N   0  0  0  0  0  0  0  0  0  0  0  0
  -96.0192  185.4595   -0.5085 N   0  0  0  0  0  0  0  0  0  0  0  0
 -138.7951   22.0667   -3.2769 N   0  0  0  0  0  0  0  0  0  0  0  0
  -96.1051  179.8943   -2.2282 N   0  0  0  0  0  0  0  0  0  0  0  0
 -139.6336   25.7107    1.0755 N   0  0  0  0  0  0  0  0  0  0  0  0
  -95.2336  185.2131    1.6171 N   0  0  0  0  0  0  0  0  0  0  0  0
 -134.1212   23.4864   -0.0258 N   0  0  0  0  0  0  0  0  0  0  0  0
 -135.7354   24.3808   -4.1610 N   0  0  0  0  0  0  0  0  0  0  0  0
  -96.3938  178.3725    2.1825 N   0  0  0  0  0  0  0  0  0  0  0  0
  -94.5332  176.0987   -1.9657 N   0  0  0  0  0  0  0  0  0  0  0  0
 -136.3420   21.8653   -4.6872 N   0  0  0  0  0  0  0  0  0  0  0  0
 -133.3602   25.7901   -1.8129 N   0  0  0  0  0  0  0  0  0  0  0  0
  -96.9249  177.0378   -2.9329 N   0  0  0  0  0  0  0  0  0  0  0  0
  -94.4909  176.0800    1.7693 N   0  0  0  0  0  0  0  0  0  0  0  0
 -132.0947   27.5241    0.6143 N   0  0  0  0  0  0  0  0  0  0  0  0
  -93.6165  176.6951    4.6014 N   0  0  0  0  0  0  0  0  0  0  0  0
 -134.4411   31.6618    0.9549 N   0  0  0  0  0  0  0  0  0  0  0  0
  -93.1250  179.2359    8.2662 N   0  0  0  0  0  0  0  0  0  0  0  0
 -135.8870   21.6588    2.6114 N   0  0  0  0  0  0  0  0  0  0  0  0
  -97.8081  181.6686    3.4068 N   0  0  0  0  0  0  0  0  0  0  0  0
 -135.2271   30.9786   -4.5231 N   0  0  0  0  0  0  0  0  0  0  0  0
  -96.8818  174.6922    9.1922 N   0  0  0  0  0  0  0  0  0  0  0  0
 -134.5541   19.8186    2.2236 N   0  0  0  0  0  0  0  0  0  0  0  0
  -98.5807  183.7694    2.8733 N   0  0  0  0  0  0  0  0  0  0  0  0
 -139.9082   22.3648   -0.1496 C   0  0  1  0  0  0  0  0  0  0  0  0
  -95.1565  182.7519   -1.0095 C   0  0  1  0  0  0  0  0  0  0  0  0
 -138.5243   22.1131   -0.8192 C   0  0  1  0  0  0  0  0  0  0  0  0
  -96.4096  181.8507   -0.8201 C   0  0  1  0  0  0  0  0  0  0  0  0
 -140.0724   21.6573    1.1986 C   0  0  0  0  0  0  0  0  0  0  0  0
  -95.2226  183.7587   -2.1576 C   0  0  0  0  0  0  0  0  0  0  0  0
 -139.2544   22.3254    2.2912 C   0  0  0  0  0  0  0  0  0  0  0  0
  -96.1619  184.9194   -1.8614 C   0  0  0  0  0  0  0  0  0  0  0  0
 -138.4871   22.8358   -2.1756 C   0  0  0  0  0  0  0  0  0  0  0  0
  -96.7306  181.1134   -2.1237 C   0  0  0  0  0  0  0  0  0  0  0  0
 -139.6752   24.3686    1.1933 C   0  0  0  0  0  0  0  0  0  0  0  0
  -95.4184  184.7450    0.3647 C   0  0  0  0  0  0  0  0  0  0  0  0
 -138.7556   22.6469   -4.6206 C   0  0  0  0  0  0  0  0  0  0  0  0
  -95.8892  179.2548   -3.5052 C   0  0  0  0  0  0  0  0  0  0  0  0
 -136.1100   22.1675   -0.3185 C   0  0  0  0  0  0  0  0  0  0  0  0
  -97.2249  180.1518    0.8051 C   0  0  0  0  0  0  0  0  0  0  0  0
 -137.3328   22.8603   -5.1935 C   0  0  1  0  0  0  0  0  0  0  0  0
  -95.6897  177.7362   -3.3775 C   0  0  1  0  0  0  0  0  0  0  0  0
 -135.0851   22.7473    0.6127 C   0  0  0  0  0  0  0  0  0  0  0  0
  -96.9650  179.6470    2.1904 C   0  0  0  0  0  0  0  0  0  0  0  0
 -132.6375   25.2840   -0.6338 C   0  0  1  0  0  0  0  0  0  0  0  0
 -136.8517   24.3115   -4.9466 C   0  0  0  0  0  0  0  0  0  0  0  0
  -95.4375  176.1856    2.9370 C   0  0  1  0  0  0  0  0  0  0  0  0
  -94.5655  177.4254   -2.3606 C   0  0  0  0  0  0  0  0  0  0  0  0
 -135.1540   25.5681   -3.5435 C   0  0  2  0  0  0  0  0  0  0  0  0
  -93.9196  175.6830   -0.6943 C   0  0  2  0  0  0  0  0  0  0  0  0
 -131.6161   26.2541    0.0496 C   0  0  0  0  0  0  0  0  0  0  0  0
  -94.7509  175.8062    4.2911 C   0  0  0  0  0  0  0  0  0  0  0  0
 -133.6711   24.7390    0.3707 C   0  0  0  0  0  0  0  0  0  0  0  0
  -96.1532  177.5432    3.2470 C   0  0  0  0  0  0  0  0  0  0  0  0
 -134.3266   30.5080    0.0425 C   0  0  1  0  0  0  0  0  0  0  0  0
  -93.6173  177.8514    8.2904 C   0  0  1  0  0  0  0  0  0  0  0  0
 -134.0072   24.9550   -2.6918 C   0  0  0  0  0  0  0  0  0  0  0  0
  -94.9475  175.9963    0.4626 C   0  0  0  0  0  0  0  0  0  0  0  0
 -134.1686   31.0469   -1.4249 C   0  0  0  0  0  0  0  0  0  0  0  0
 -133.1364   29.6997    0.6302 C   0  0  0  0  0  0  0  0  0  0  0  0
  -94.5535  177.7773    9.5423 C   0  0  0  0  0  0  0  0  0  0  0  0
  -94.2352  177.4709    6.9154 C   0  0  0  0  0  0  0  0  0  0  0  0
 -135.0807   22.5439    1.9416 C   0  0  0  0  0  0  0  0  0  0  0  0
  -97.2659  180.3905    3.2803 C   0  0  0  0  0  0  0  0  0  0  0  0
 -136.1850   26.2974   -2.6661 C   0  0  0  0  0  0  0  0  0  0  0  0
  -92.5108  176.2435   -0.5112 C   0  0  0  0  0  0  0  0  0  0  0  0
 -134.1655   29.9830   -2.5197 C   0  0  0  0  0  0  0  0  0  0  0  0
 -133.0156   28.2731   -0.0201 C   0  0  0  0  0  0  0  0  0  0  0  0
  -95.2153  176.4374    9.9129 C   0  0  0  0  0  0  0  0  0  0  0  0
  -93.3332  177.5008    5.6816 C   0  0  0  0  0  0  0  0  0  0  0  0
 -134.0559   30.3154   -3.9943 C   0  0  0  0  0  0  0  0  0  0  0  0
  -96.2269  175.9475    8.8800 C   0  0  0  0  0  0  0  0  0  0  0  0
 -135.6563   20.3279    2.8180 C   0  0  0  0  0  0  0  0  0  0  0  0
  -98.2516  182.5286    2.4475 C   0  0  0  0  0  0  0  0  0  0  0  0
  1 52  2  0  0  0  0
  2 53  2  0  0  0  0
  3 58  2  0  0  0  0
  4 59  2  0  0  0  0
  5 65  2  0  0  0  0
  6 67  2  0  0  0  0
  7 72  2  0  0  0  0
  8 73  2  0  0  0  0
  9 76  2  0  0  0  0
 10 84  1  0  0  0  0
 11 77  2  0  0  0  0
 12 87  2  0  0  0  0
 13 89  2  0  0  0  0
 14 92  2  0  0  0  0
 15 93  2  0  0  0  0
 16 54  1  0  0  0  0
 17 55  1  0  0  0  0
 18 58  1  0  0  0  0
 19 59  1  0  0  0  0
 20 50  1  0  0  0  0
 20 54  2  0  0  0  0
 21 51  1  0  0  0  0
 21 55  2  0  0  0  0
 22 52  1  0  0  0  0
 22 56  1  0  0  0  0
 23 53  1  0  0  0  0
 23 57  1  0  0  0  0
 24 54  1  0  0  0  0
 25 55  1  0  0  0  0
 26 62  1  0  0  0  0
 26 72  1  0  0  0  0
 27 65  1  0  0  0  0
 27 68  1  0  0  0  0
 28 63  1  0  0  0  0
 28 73  1  0  0  0  0
 29 67  1  0  0  0  0
 29 69  1  0  0  0  0
 31 64  1  0  0  0  0
 31 76  1  0  0  0  0
 33 66  1  0  0  0  0
 33 77  1  0  0  0  0
 34 70  1  0  0  0  0
 34 87  1  0  0  0  0
 35 71  1  0  0  0  0
 35 89  1  0  0  0  0
 38 82  1  0  0  0  0
 38 92  1  0  0  0  0
 39 83  1  0  0  0  0
 39 93  1  0  0  0  0
 40 90  1  0  0  0  0
 41 91  1  0  0  0  0
 42 92  1  0  0  0  0
 43 93  1  0  0  0  0
 44 16  1  1  0  0  0
 44 48  1  0  0  0  0
 45 17  1  1  0  0  0
 45 49  1  0  0  0  0
 46 18  1  1  0  0  0
 46 52  1  0  0  0  0
 46 44  1  0  0  0  0
 47 19  1  1  0  0  0
 47 53  1  0  0  0  0
 47 45  1  0  0  0  0
 48 50  1  0  0  0  0
 49 51  1  0  0  0  0
 56 60  1  0  0  0  0
 57 61  1  0  0  0  0
 58 62  1  0  0  0  0
 59 63  1  0  0  0  0
 60 65  1  0  0  0  0
 60 30  1  1  0  0  0
 61 67  1  0  0  0  0
 61 32  1  1  0  0  0
 62 82  2  0  0  0  0
 63 83  2  0  0  0  0
 64 70  1  1  0  0  0
 64 72  1  0  0  0  0
 66 71  1  1  0  0  0
 66 73  1  0  0  0  0
 68 76  1  0  0  0  0
 68 84  1  1  0  0  0
 69 77  1  0  0  0  0
 69 85  1  1  0  0  0
 74 36  1  1  0  0  0
 74 78  1  0  0  0  0
 74 79  1  0  0  0  0
 75 37  1  6  0  0  0
 75 80  1  0  0  0  0
 75 81  1  0  0  0  0
 78 86  1  0  0  0  0
 79 87  1  0  0  0  0
 80 88  1  0  0  0  0
 81 89  1  0  0  0  0
 86 90  1  0  0  0  0
 88 91  1  0  0  0  0
M  END
