1197
 OpenBabel10141417493D

 14 14  0  0  1  0  0  0  0  0999 V2000
    3.0175    3.3962   -1.0818 S   0  0  0  0  0  0  0  0  0  0  0  0
    2.4171   -0.4805    1.1703 O   0  0  0  0  0  0  0  0  0  0  0  0
    5.3137   -2.2897    2.0886 O   0  0  0  0  0  0  0  0  0  0  0  0
    3.8359   -3.6976    2.9687 O   0  0  0  0  0  0  0  0  0  0  0  0
    3.7813   -1.7581   -0.1111 N   0  0  0  0  0  0  0  0  0  0  0  0
    3.4640   -2.9606    0.6639 C   0  0  1  0  0  0  0  0  0  0  0  0
    3.9999   -4.1217   -0.1830 C   0  0  0  0  0  0  0  0  0  0  0  0
    4.2145   -3.5210   -1.5675 C   0  0  0  0  0  0  0  0  0  0  0  0
    4.5942   -2.0855   -1.2658 C   0  0  0  0  0  0  0  0  0  0  0  0
    3.2221   -0.5491    0.2382 C   0  0  0  0  0  0  0  0  0  0  0  0
    3.6312    0.6947   -0.5545 C   0  0  1  0  0  0  0  0  0  0  0  0
    4.1578   -2.9875    2.0235 C   0  0  0  0  0  0  0  0  0  0  0  0
    2.7817    1.8895   -0.0788 C   0  0  0  0  0  0  0  0  0  0  0  0
    5.1296    0.9607   -0.3798 C   0  0  0  0  0  0  0  0  0  0  0  0
  1 13  1  0  0  0  0
  2 10  2  0  0  0  0
  3 12  1  0  0  0  0
  4 12  2  0  0  0  0
  5  6  1  0  0  0  0
  5  9  1  0  0  0  0
  5 10  1  0  0  0  0
  6  7  1  0  0  0  0
  6 12  1  1  0  0  0
  7  8  1  0  0  0  0
  8  9  1  0  0  0  0
 11 14  1  1  0  0  0
 11 13  1  0  0  0  0
 11 10  1  0  0  0  0
M  END
