578
 OpenBabel10141417523D

 26 28  0  0  1  0  0  0  0  0999 V2000
   -2.0783    0.0294   -1.2625 S   0  0  0  0  0  0  0  0  0  0  0  0
    1.6160    1.8910    0.0508 O   0  0  0  0  0  0  0  0  0  0  0  0
   -0.3696    1.1715   -4.2870 O   0  0  0  0  0  0  0  0  0  0  0  0
   -1.1032    3.2619   -4.1225 O   0  0  0  0  0  0  0  0  0  0  0  0
   -1.1361   -2.5142    0.5449 O   0  0  0  0  0  0  0  0  0  0  0  0
   -1.6414   -4.2906    2.2281 O   0  0  0  0  0  0  0  0  0  0  0  0
   -1.0967   -3.8242    4.3532 O   0  0  0  0  0  0  0  0  0  0  0  0
    0.3413    0.9812   -1.6917 N   0  0  0  0  0  0  0  0  0  0  0  0
   -0.0689   -0.6208    1.1922 N   0  0  0  0  0  0  0  0  0  0  0  0
   -0.2911   -0.3242   -1.4390 C   0  0  1  0  0  0  0  0  0  0  0  0
   -1.8884    1.8581   -1.3297 C   0  0  0  0  0  0  0  0  0  0  0  0
   -0.5365    2.1021   -2.0441 C   0  0  2  0  0  0  0  0  0  0  0  0
    0.5887   -0.4516   -0.1586 C   0  0  1  0  0  0  0  0  0  0  0  0
    1.0403    0.9834   -0.5219 C   0  0  0  0  0  0  0  0  0  0  0  0
   -3.1341    2.4329   -2.0148 C   0  0  0  0  0  0  0  0  0  0  0  0
   -1.8599    2.3837    0.1164 C   0  0  0  0  0  0  0  0  0  0  0  0
   -0.6743    2.2644   -3.5591 C   0  0  0  0  0  0  0  0  0  0  0  0
   -0.8703   -1.7123    1.4464 C   0  0  0  0  0  0  0  0  0  0  0  0
   -1.4035   -1.9229    2.8692 C   0  0  3  0  0  0  0  0  0  0  0  0
   -2.8086   -1.3632    3.1444 C   0  0  0  0  0  0  0  0  0  0  0  0
   -1.3457   -3.4189    3.2222 C   0  0  0  0  0  0  0  0  0  0  0  0
   -3.5788   -0.7180    2.1680 C   0  0  0  0  0  0  0  0  0  0  0  0
   -3.3954   -1.5296    4.4159 C   0  0  0  0  0  0  0  0  0  0  0  0
   -4.9015   -0.3307    2.4148 C   0  0  0  0  0  0  0  0  0  0  0  0
   -4.7214   -1.1500    4.6632 C   0  0  0  0  0  0  0  0  0  0  0  0
   -5.4811   -0.5670    3.6553 C   0  0  0  0  0  0  0  0  0  0  0  0
  1 11  1  0  0  0  0
  2 14  2  0  0  0  0
  3 17  1  0  0  0  0
  4 17  2  0  0  0  0
  5 18  2  0  0  0  0
  6 21  1  0  0  0  0
  7 21  2  0  0  0  0
  8 10  1  0  0  0  0
  8 12  1  0  0  0  0
  8 14  1  0  0  0  0
  9 18  1  0  0  0  0
 10  1  1  1  0  0  0
 10 13  1  0  0  0  0
 11 12  1  0  0  0  0
 11 15  1  0  0  0  0
 11 16  1  0  0  0  0
 12 17  1  6  0  0  0
 13 14  1  0  0  0  0
 13  9  1  1  0  0  0
 18 19  1  0  0  0  0
 19 20  1  0  0  0  0
 19 21  1  0  0  0  0
 20 22  2  0  0  0  0
 20 23  1  0  0  0  0
 22 24  1  0  0  0  0
 23 25  2  0  0  0  0
 24 26  2  0  0  0  0
 25 26  1  0  0  0  0
M  END
