
 OpenBabel10141417483D

 34 33  0  0  1  0  0  0  0  0999 V2000
    2.0812    0.0902  -10.6876 C   0  0  0  0  0  0  0  0  0  0  0  0
    3.0637   -0.1458   -9.5509 C   0  0  2  0  0  0  0  0  0  0  0  0
    3.8724   -1.2682   -9.8505 O   0  0  0  0  0  0  0  0  0  0  0  0
    0.9510    0.9071  -10.0652 C   0  0  2  0  0  0  0  0  0  0  0  0
    0.8819    2.1940  -10.6639 O   0  0  0  0  0  0  0  0  0  0  0  0
    2.1802   -0.2578   -8.2877 C   0  0  2  0  0  0  0  0  0  0  0  0
    1.4849   -1.6400   -8.1045 C   0  0  0  0  0  0  0  0  0  0  0  0
    0.5842   -1.7585   -6.8983 C   0  0  0  0  0  0  0  0  0  0  0  0
    0.8695   -2.2012   -5.6775 C   0  0  0  0  0  0  0  0  0  0  0  0
    2.1987   -2.6202   -5.1449 C   0  0  0  0  0  0  0  0  0  0  0  0
    2.1272   -4.0565   -4.5754 C   0  0  0  0  0  0  0  0  0  0  0  0
    3.4398   -4.5064   -3.9258 C   0  0  0  0  0  0  0  0  0  0  0  0
    4.9578   -3.5548   -2.3896 O   0  0  0  0  0  0  0  0  0  0  0  0
    3.8314   -3.4919   -2.8896 C   0  0  0  0  0  0  0  0  0  0  0  0
    2.8796   -2.6775   -2.5161 O   0  5  0  0  0  0  0  0  0  0  0  0
    1.1844    0.9159   -8.5211 C   0  0  1  0  0  0  0  0  0  0  0  0
    1.6929    2.2282   -7.9281 C   0  0  0  0  0  0  0  0  0  0  0  0
    1.9157    2.3945   -6.6179 C   0  0  0  0  0  0  0  0  0  0  0  0
    1.8934    3.7717   -4.4636 C   0  0  0  0  0  0  0  0  0  0  0  0
    2.3068    2.6581   -3.5077 C   0  0  0  0  0  0  0  0  0  0  0  0
    1.6498    2.8794   -2.1327 C   0  0  0  0  0  0  0  0  0  0  0  0
    2.0688    1.7537   -1.2342 C   0  0  0  0  0  0  0  0  0  0  0  0
    1.6806    1.8403    0.2379 C   0  0  0  0  0  0  0  0  0  0  0  0
    2.4082    3.6473   -5.9134 C   0  0  2  0  0  0  0  0  0  0  0  0
    1.8972    4.7762   -6.6314 O   0  0  0  0  0  0  0  0  0  0  0  0
    3.9394    3.7014   -5.9482 C   0  0  0  0  0  0  0  0  0  0  0  0
    4.7325    0.4607   -0.4451 O   0  0  0  0  0  0  0  0  0  0  0  0
    3.8347   -0.6341   -0.7273 C   0  0  0  0  0  0  0  0  0  0  0  0
    4.1101   -1.7563    0.2674 C   0  0  0  0  0  0  0  0  0  0  0  0
    3.2818   -3.0167    0.0814 C   0  0  0  0  0  0  0  0  0  0  0  0
    3.6186   -4.1137    0.9221 O   0  0  0  0  0  0  0  0  0  0  0  0
    5.5731   -2.0109    0.0891 N   0  3  0  0  0  0  0  0  0  0  0  0
    3.8466   -1.3214    1.7167 C   0  0  0  0  0  0  0  0  0  0  0  0
    4.6696   -0.2351    2.1178 O   0  0  0  0  0  0  0  0  0  0  0  0
  1  4  1  0  0  0  0
  2  1  1  0  0  0  0
  2  6  1  0  0  0  0
  2  3  1  6  0  0  0
  4 16  1  0  0  0  0
  4  5  1  6  0  0  0
  6  7  1  6  0  0  0
  7  8  1  0  0  0  0
  8  9  2  0  0  0  0
  9 10  1  0  0  0  0
 10 11  1  0  0  0  0
 11 12  1  0  0  0  0
 12 14  1  0  0  0  0
 14 13  2  0  0  0  0
 14 15  1  0  0  0  0
 16  6  1  0  0  0  0
 16 17  1  6  0  0  0
 17 18  2  0  0  0  0
 19 20  1  0  0  0  0
 20 21  1  0  0  0  0
 21 22  1  0  0  0  0
 22 23  1  0  0  0  0
 24 25  1  6  0  0  0
 24 19  1  0  0  0  0
 24 18  1  0  0  0  0
 26 24  1  0  0  0  0
 28 27  1  0  0  0  0
 29 28  1  0  0  0  0
 29 32  1  0  0  0  0
 29 33  1  0  0  0  0
 30 29  1  0  0  0  0
 31 30  1  0  0  0  0
 33 34  1  0  0  0  0
M  CHG  2  15  -1  32   1
M  END
