
 OpenBabel10141418083D

 17 16  0  0  1  0  0  0  0  0999 V2000
   -1.5211    0.6270    1.0487 C   0  0  0  0  0  0  0  0  0  0  0  0
   -0.7865    1.4430    1.9290 C   0  0  0  0  0  0  0  0  0  0  0  0
   -0.9059   -0.5327    0.5631 C   0  0  0  0  0  0  0  0  0  0  0  0
    0.5524    1.1582    2.2334 C   0  0  0  0  0  0  0  0  0  0  0  0
    0.4370   -0.7928    0.8307 C   0  0  0  0  0  0  0  0  0  0  0  0
    1.1697    0.0530    1.6566 C   0  0  0  0  0  0  0  0  0  0  0  0
    1.0484   -1.8636    0.2401 O   0  0  0  0  0  0  0  0  0  0  0  0
    2.4926   -0.2065    1.8736 O   0  0  0  0  0  0  0  0  0  0  0  0
   -2.9499    0.9868    0.6705 C   0  0  0  0  0  0  0  0  0  0  0  0
   -3.2922    1.2150   -0.8405 C   0  0  2  0  0  0  0  0  0  0  0  0
   -3.1253   -0.1087   -1.6416 C   0  0  0  0  0  0  0  0  0  0  0  0
   -4.2178   -0.9201   -1.5526 O   0  0  0  0  0  0  0  0  0  0  0  0
   -2.1531   -0.4726   -2.2638 O   0  0  0  0  0  0  0  0  0  0  0  0
   -2.4065    2.2820   -1.5096 C   0  0  0  0  0  0  0  0  0  0  0  0
   -4.7274    1.6232   -1.0206 N   0  0  0  0  0  0  0  0  0  0  0  0
   -5.0809    2.8952   -0.4453 N   0  0  0  0  0  0  0  0  0  0  0  0
    0.7150   -1.4220   -2.5242 O   0  0  0  0  0  0  0  0  0  0  0  0
  1  9  1  0  0  0  0
  2  1  1  0  0  0  0
  3  1  2  0  0  0  0
  4  2  2  0  0  0  0
  5  3  1  0  0  0  0
  5  7  1  0  0  0  0
  6  4  1  0  0  0  0
  6  5  2  0  0  0  0
  6  8  1  0  0  0  0
 10 14  1  6  0  0  0
 10 15  1  0  0  0  0
 10 11  1  0  0  0  0
 10  9  1  0  0  0  0
 11 12  1  0  0  0  0
 11 13  2  0  0  0  0
 15 16  1  0  0  0  0
M  END
