51-83-2
 OpenBabel10141417483D

 11  9  0  0  0  0  0  0  0  0999 V2000
    1.5627   -0.5199   -1.4666 C   0  0  0  0  0  0  0  0  0  0  0  0
    2.3430   -1.0751   -2.6820 N   0  3  0  0  0  0  0  0  0  0  0  0
    3.1171    0.0240   -3.3737 C   0  0  0  0  0  0  0  0  0  0  0  0
    3.2372   -2.2242   -2.2825 C   0  0  0  0  0  0  0  0  0  0  0  0
    1.2782   -1.6070   -3.6614 C   0  0  0  0  0  0  0  0  0  0  0  0
    2.4332    0.1238   -0.3761 C   0  0  0  0  0  0  0  0  0  0  0  0
    1.5990    0.6029    0.6905 O   0  0  0  0  0  0  0  0  0  0  0  0
    0.9503    1.7585    0.4093 C   0  0  0  0  0  0  0  0  0  0  0  0
    0.0321    2.0133    1.3665 N   0  0  0  0  0  0  0  0  0  0  0  0
    1.1352    2.4498   -0.5774 O   0  0  0  0  0  0  0  0  0  0  0  0
   -1.8815   -1.1624   -1.8371 Cl  0  5  0  0  0  0  0  0  0  0  0  0
  1  2  1  0  0  0  0
  1  6  1  0  0  0  0
  2  3  1  0  0  0  0
  2  4  1  0  0  0  0
  2  5  1  0  0  0  0
  6  7  1  0  0  0  0
  7  8  1  0  0  0  0
  8  9  1  0  0  0  0
  8 10  2  0  0  0  0
M  CHG  2   2   1  11  -1
M  END
