
 OpenBabel10141417483D

 13 12  0  0  0  0  0  0  0  0999 V2000
    1.2767    0.8116    3.5634 C   0  0  0  0  0  0  0  0  0  0  0  0
    0.2978    0.7602    4.4993 O   0  0  0  0  0  0  0  0  0  0  0  0
    2.8730    2.2938    1.1899 C   0  0  0  0  0  0  0  0  0  0  0  0
    1.8978    1.1137    1.0851 C   0  0  0  0  0  0  0  0  0  0  0  0
    0.7553    0.9838    2.1166 C   0  0  2  0  0  0  0  0  0  0  0  0
   -0.2784    2.0093    1.9701 N   0  0  0  0  0  0  0  0  0  0  0  0
   -1.9356    0.8303    2.9503 O   0  0  0  0  0  0  0  0  0  0  0  0
   -1.5457    1.8498    2.4265 C   0  0  0  0  0  0  0  0  0  0  0  0
   -2.2861    2.9788    2.3977 N   0  0  0  0  0  0  0  0  0  0  0  0
    2.2307    3.6425    0.9940 C   0  0  0  0  0  0  0  0  0  0  0  0
    1.3420    4.0867    1.7193 O   0  0  0  0  0  0  0  0  0  0  0  0
    2.4446    0.5931    3.8533 O   0  0  0  0  0  0  0  0  0  0  0  0
    2.6572    4.3259   -0.0799 O   0  0  0  0  0  0  0  0  0  0  0  0
  1  2  1  0  0  0  0
  1 12  2  0  0  0  0
  3 10  1  0  0  0  0
  4  3  1  0  0  0  0
  5  6  1  1  0  0  0
  5  4  1  0  0  0  0
  5  1  1  0  0  0  0
  6  8  1  0  0  0  0
  8  7  2  0  0  0  0
  9  8  1  0  0  0  0
 10 11  2  0  0  0  0
 10 13  1  0  0  0  0
M  END
