395
 OpenBabel10141417483D

 18 17  0  0  1  0  0  0  0  0999 V2000
    0.3865    0.6174   -1.9742 O   0  0  0  0  0  0  0  0  0  0  0  0
   -1.6772   -0.1983    1.6476 O   0  0  0  0  0  0  0  0  0  0  0  0
    0.4984    2.8746   -2.3711 O   0  0  0  0  0  0  0  0  0  0  0  0
   -1.0224    1.2016    3.3483 O   0  0  0  0  0  0  0  0  0  0  0  0
    1.5775    1.3267   -3.6862 N   0  0  0  0  0  0  0  0  0  0  0  0
   -0.4043   -0.9678    3.2699 N   0  0  0  0  0  0  0  0  0  0  0  0
   -1.7141    0.7598   -0.5980 C   0  0  3  0  0  0  0  0  0  0  0  0
   -2.2224   -0.5884   -1.2134 C   0  0  0  0  0  0  0  0  0  0  0  0
   -0.1571    0.7829   -0.6455 C   0  0  0  0  0  0  0  0  0  0  0  0
   -2.1796    0.9065    0.8779 C   0  0  0  0  0  0  0  0  0  0  0  0
   -2.2403    1.9615   -1.4001 C   0  0  0  0  0  0  0  0  0  0  0  0
   -3.7503   -0.7629   -1.2370 C   0  0  0  0  0  0  0  0  0  0  0  0
   -4.2028   -2.0825   -1.8513 C   0  0  0  0  0  0  0  0  0  0  0  0
    0.7791    1.7314   -2.6513 C   0  0  0  0  0  0  0  0  0  0  0  0
    2.2191    2.2385   -4.6183 C   0  0  0  0  0  0  0  0  0  0  0  0
   -1.0734    0.1076    2.8107 C   0  0  0  0  0  0  0  0  0  0  0  0
    3.1360    1.4695   -5.5712 C   0  0  0  0  0  0  0  0  0  0  0  0
    1.1707    3.0285   -5.3946 C   0  0  0  0  0  0  0  0  0  0  0  0
  1  9  1  0  0  0  0
  1 14  1  0  0  0  0
  2 10  1  0  0  0  0
  2 16  1  0  0  0  0
  3 14  2  0  0  0  0
  4 16  2  0  0  0  0
  5 14  1  0  0  0  0
  5 15  1  0  0  0  0
  6 16  1  0  0  0  0
  7  8  1  0  0  0  0
  7  9  1  0  0  0  0
  7 10  1  0  0  0  0
  7 11  1  0  0  0  0
  8 12  1  0  0  0  0
 12 13  1  0  0  0  0
 15 17  1  0  0  0  0
 15 18  1  0  0  0  0
M  END
