821
 OpenBabel10141417493D

 19 21  0  0  1  0  0  0  0  0999 V2000
    0.8000   -0.1344    0.1362 Cl  0  0  0  0  0  0  0  0  0  0  0  0
    9.4249    4.5587   -2.3471 O   0  0  0  0  0  0  0  0  0  0  0  0
   11.2821    3.7520   -1.3607 O   0  0  0  0  0  0  0  0  0  0  0  0
    6.6240    0.0665   -0.1460 N   0  0  0  0  0  0  0  0  0  0  0  0
    5.6452    2.0531    0.0795 C   0  0  0  0  0  0  0  0  0  0  0  0
    6.8762    1.4152   -0.0498 C   0  0  0  0  0  0  0  0  0  0  0  0
    4.6307    1.0412    0.0465 C   0  0  0  0  0  0  0  0  0  0  0  0
    8.0703    3.5080    0.0652 C   0  0  0  0  0  0  0  0  0  0  0  0
    5.2735   -0.1890   -0.0923 C   0  0  0  0  0  0  0  0  0  0  0  0
    9.3664    4.3083    0.0513 C   0  0  3  0  0  0  0  0  0  0  0  0
    8.0952    2.1070   -0.0660 C   0  0  0  0  0  0  0  0  0  0  0  0
    5.6309    3.4566    0.2075 C   0  0  0  0  0  0  0  0  0  0  0  0
    6.8406    4.1670    0.2034 C   0  0  0  0  0  0  0  0  0  0  0  0
    3.2216    1.0596    0.1218 C   0  0  0  0  0  0  0  0  0  0  0  0
    4.5842   -1.4064   -0.1569 C   0  0  0  0  0  0  0  0  0  0  0  0
   10.2592    3.9593    1.2458 C   0  0  0  0  0  0  0  0  0  0  0  0
    2.5212   -0.1493    0.0532 C   0  0  0  0  0  0  0  0  0  0  0  0
   10.1297    4.1564   -1.2620 C   0  0  0  0  0  0  0  0  0  0  0  0
    3.1887   -1.3637   -0.0827 C   0  0  0  0  0  0  0  0  0  0  0  0
  1 17  1  0  0  0  0
  2 18  1  0  0  0  0
  3 18  2  0  0  0  0
  4  6  1  0  0  0  0
  4  9  1  0  0  0  0
  5  6  2  0  0  0  0
  5  7  1  0  0  0  0
  5 12  1  0  0  0  0
  6 11  1  0  0  0  0
  7  9  2  0  0  0  0
  7 14  1  0  0  0  0
  8 10  1  0  0  0  0
  8 11  2  0  0  0  0
  8 13  1  0  0  0  0
  9 15  1  0  0  0  0
 10 16  1  0  0  0  0
 10 18  1  0  0  0  0
 12 13  2  0  0  0  0
 14 17  2  0  0  0  0
 15 19  2  0  0  0  0
 17 19  1  0  0  0  0
M  END
