456
 OpenBabel10141417503D

 26 28  0  0  1  0  0  0  0  0999 V2000
   -0.3398   -3.1921    2.8363 S   0  0  0  0  0  0  0  0  0  0  0  0
    0.0707    3.0719    4.0561 S   0  0  0  0  0  0  0  0  0  0  0  0
   -2.9360   -1.6725   -0.3972 O   0  0  0  0  0  0  0  0  0  0  0  0
    0.3699   -7.0286   -0.1088 O   0  0  0  0  0  0  0  0  0  0  0  0
   -2.8465   -3.8119   -1.7552 O   0  0  0  0  0  0  0  0  0  0  0  0
   -2.0215    1.4495    0.8117 O   0  0  0  0  0  0  0  0  0  0  0  0
   -2.5905   -5.9500   -1.2533 O   0  0  0  0  0  0  0  0  0  0  0  0
    1.6984   -7.4751    1.7094 O   0  0  0  0  0  0  0  0  0  0  0  0
   -1.2231   -3.0120    0.3780 N   0  0  0  0  0  0  0  0  0  0  0  0
   -1.2627   -0.2656    2.1128 N   0  0  0  0  0  0  0  0  0  0  0  0
   -0.1663   -2.4521    1.1962 C   0  0  1  0  0  0  0  0  0  0  0  0
   -0.8010   -1.0548    0.9452 C   0  0  1  0  0  0  0  0  0  0  0  0
   -1.8929   -1.8535    0.1685 C   0  0  0  0  0  0  0  0  0  0  0  0
   -1.4358   -4.3431    0.1618 C   0  0  0  0  0  0  0  0  0  0  0  0
   -0.7827   -5.2431    0.9534 C   0  0  0  0  0  0  0  0  0  0  0  0
    0.0316   -4.8603    2.1901 C   0  0  0  0  0  0  0  0  0  0  0  0
   -0.7659   -6.7460    0.7222 C   0  0  0  0  0  0  0  0  0  0  0  0
   -1.8367    0.9779    1.9309 C   0  0  0  0  0  0  0  0  0  0  0  0
   -2.3457   -4.7872   -0.9745 C   0  0  0  0  0  0  0  0  0  0  0  0
   -2.2041    1.7048    3.2122 C   0  0  0  0  0  0  0  0  0  0  0  0
   -1.4635    3.0052    3.2926 C   0  0  0  0  0  0  0  0  0  0  0  0
    1.5485   -7.2833    0.5111 C   0  0  0  0  0  0  0  0  0  0  0  0
   -1.8485    4.2469    2.8239 C   0  0  0  0  0  0  0  0  0  0  0  0
   -0.8879    5.2586    3.1166 C   0  0  0  0  0  0  0  0  0  0  0  0
    0.2019    4.7552    3.7900 C   0  0  0  0  0  0  0  0  0  0  0  0
    2.6749   -7.1082   -0.4618 C   0  0  0  0  0  0  0  0  0  0  0  0
  1 16  1  0  0  0  0
  2 21  1  0  0  0  0
  2 25  1  0  0  0  0
  3 13  2  0  0  0  0
  4 17  1  0  0  0  0
  4 22  1  0  0  0  0
  5 19  1  0  0  0  0
  6 18  2  0  0  0  0
  7 19  2  0  0  0  0
  8 22  2  0  0  0  0
  9 11  1  0  0  0  0
  9 13  1  0  0  0  0
  9 14  1  0  0  0  0
 10 18  1  0  0  0  0
 11  1  1  1  0  0  0
 11 12  1  0  0  0  0
 12 13  1  0  0  0  0
 12 10  1  1  0  0  0
 14 15  2  0  0  0  0
 14 19  1  0  0  0  0
 15 16  1  0  0  0  0
 15 17  1  0  0  0  0
 18 20  1  0  0  0  0
 20 21  1  0  0  0  0
 21 23  2  0  0  0  0
 22 26  1  0  0  0  0
 23 24  1  0  0  0  0
 24 25  2  0  0  0  0
M  END
