1139
 OpenBabel10141417523D

 28 30  0  0  1  0  0  0  0  0999 V2000
   -0.4011   -2.8586    2.7451 S   0  0  0  0  0  0  0  0  0  0  0  0
   -1.3890    3.4830    3.0058 S   0  0  0  0  0  0  0  0  0  0  0  0
   -3.0341   -1.6766   -0.3984 O   0  0  0  0  0  0  0  0  0  0  0  0
    0.3860   -7.1508    0.9457 O   0  0  0  0  0  0  0  0  0  0  0  0
   -2.0741   -3.8634   -2.0838 O   0  0  0  0  0  0  0  0  0  0  0  0
   -2.7879   -5.7380   -1.1146 O   0  0  0  0  0  0  0  0  0  0  0  0
    0.5625    1.1226    2.0693 O   0  0  0  0  0  0  0  0  0  0  0  0
    0.0569   -8.2459    2.9375 O   0  0  0  0  0  0  0  0  0  0  0  0
   -1.0840   -2.8726    0.1802 N   0  0  0  0  0  0  0  0  0  0  0  0
   -1.3807   -0.0398    1.8036 N   0  0  0  0  0  0  0  0  0  0  0  0
   -3.5612    5.1622    6.6623 N   0  0  0  0  0  0  0  0  0  0  0  0
   -0.1419   -2.2204    1.0670 C   0  0  1  0  0  0  0  0  0  0  0  0
   -0.8517   -0.8823    0.6979 C   0  0  1  0  0  0  0  0  0  0  0  0
   -1.8929   -1.8025    0.0010 C   0  0  0  0  0  0  0  0  0  0  0  0
   -1.3231   -4.2204    0.1257 C   0  0  0  0  0  0  0  0  0  0  0  0
   -0.7897   -5.0568    1.0514 C   0  0  0  0  0  0  0  0  0  0  0  0
   -0.0134   -4.5662    2.2643 C   0  0  0  0  0  0  0  0  0  0  0  0
   -0.9255   -6.5673    1.0405 C   0  0  0  0  0  0  0  0  0  0  0  0
   -2.1519   -4.7035   -1.0325 C   0  0  0  0  0  0  0  0  0  0  0  0
   -0.6060    0.9322    2.3993 C   0  0  0  0  0  0  0  0  0  0  0  0
   -1.3156    1.7277    3.4832 C   0  0  0  0  0  0  0  0  0  0  0  0
    0.7115   -8.0332    1.9268 C   0  0  0  0  0  0  0  0  0  0  0  0
   -2.2328    4.1250    4.4357 C   0  0  0  0  0  0  0  0  0  0  0  0
    2.0064   -8.7196    1.6226 C   0  0  0  0  0  0  0  0  0  0  0  0
   -1.5114    4.5555    5.5462 C   0  0  0  0  0  0  0  0  0  0  0  0
   -3.6214    4.2282    4.4403 C   0  0  0  0  0  0  0  0  0  0  0  0
   -2.2154    5.0611    6.6255 C   0  0  0  0  0  0  0  0  0  0  0  0
   -4.2334    4.7491    5.5672 C   0  0  0  0  0  0  0  0  0  0  0  0
  1 17  1  0  0  0  0
  2 21  1  0  0  0  0
  2 23  1  0  0  0  0
  3 14  2  0  0  0  0
  4 18  1  0  0  0  0
  4 22  1  0  0  0  0
  5 19  1  0  0  0  0
  6 19  2  0  0  0  0
  7 20  2  0  0  0  0
  8 22  2  0  0  0  0
  9 12  1  0  0  0  0
  9 14  1  0  0  0  0
  9 15  1  0  0  0  0
 10 20  1  0  0  0  0
 11 27  2  0  0  0  0
 11 28  1  0  0  0  0
 12  1  1  1  0  0  0
 12 13  1  0  0  0  0
 13 14  1  0  0  0  0
 13 10  1  1  0  0  0
 15 16  2  0  0  0  0
 15 19  1  0  0  0  0
 16 17  1  0  0  0  0
 16 18  1  0  0  0  0
 20 21  1  0  0  0  0
 22 24  1  0  0  0  0
 23 25  2  0  0  0  0
 23 26  1  0  0  0  0
 25 27  1  0  0  0  0
 26 28  2  0  0  0  0
M  END
