
 OpenBabel10141417523D

 29 32  0  0  1  0  0  0  0  0999 V2000
    0.2329   -0.6712   -0.9718 C   0  0  2  0  0  0  0  0  0  0  0  0
    0.3554    0.7086   -0.5212 N   0  0  0  0  0  0  0  0  0  0  0  0
   -0.6805    1.6093   -0.4425 C   0  0  0  0  0  0  0  0  0  0  0  0
   -1.9758    1.2273   -0.5938 C   0  0  0  0  0  0  0  0  0  0  0  0
   -2.3718   -0.1941   -0.9469 C   0  0  0  0  0  0  0  0  0  0  0  0
   -1.2567   -1.4315   -0.2517 S   0  0  0  0  0  0  0  0  0  0  0  0
    1.5681   -0.9416   -0.1993 C   0  0  1  0  0  0  0  0  0  0  0  0
    1.2815    0.4387    0.4404 C   0  0  0  0  0  0  0  0  0  0  0  0
    1.6197   -2.1030    0.7404 N   0  0  0  0  0  0  0  0  0  0  0  0
    1.9265   -3.3641    0.2807 C   0  0  0  0  0  0  0  0  0  0  0  0
    2.2723   -3.5639   -0.8826 O   0  0  0  0  0  0  0  0  0  0  0  0
    1.6128    0.9976    1.4683 O   0  0  0  0  0  0  0  0  0  0  0  0
    1.8318   -4.4808    1.2931 C   0  0  0  0  0  0  0  0  0  0  0  0
   -3.1727    2.1489   -0.4417 C   0  0  0  0  0  0  0  0  0  0  0  0
   -0.2696    3.0571   -0.3125 C   0  0  0  0  0  0  0  0  0  0  0  0
   -0.9862    4.0417   -0.2789 O   0  0  0  0  0  0  0  0  0  0  0  0
    1.0691    3.2130   -0.3524 O   0  0  0  0  0  0  0  0  0  0  0  0
    0.9515   -5.5075    0.8016 N   0  0  0  0  0  0  0  0  0  0  0  0
   -4.1317    2.3324   -1.9734 S   0  0  0  0  0  0  0  0  0  0  0  0
   -2.9151    3.0048   -3.0277 C   0  0  0  0  0  0  0  0  0  0  0  0
   -1.8121    2.3523   -3.3259 N   0  0  0  0  0  0  0  0  0  0  0  0
   -0.9773    3.0860   -4.1412 N   0  0  0  0  0  0  0  0  0  0  0  0
   -1.5071    4.2472   -4.4646 C   0  0  0  0  0  0  0  0  0  0  0  0
   -3.0578    4.5324   -3.7801 S   0  0  0  0  0  0  0  0  0  0  0  0
   -0.8643    5.2611   -5.3350 C   0  0  0  0  0  0  0  0  0  0  0  0
    1.2468   -6.6035    0.0576 C   0  0  0  0  0  0  0  0  0  0  0  0
    0.1237   -7.2219   -0.2275 N   0  0  0  0  0  0  0  0  0  0  0  0
   -0.8733   -6.4868    0.3712 N   0  0  0  0  0  0  0  0  0  0  0  0
   -0.3703   -5.4481    1.0253 N   0  0  0  0  0  0  0  0  0  0  0  0
  1  2  1  1  0  0  0
  1  6  1  0  0  0  0
  1  7  1  0  0  0  0
  2  3  1  0  0  0  0
  2  8  1  0  0  0  0
  3  4  2  0  0  0  0
  3 15  1  0  0  0  0
  4  5  1  0  0  0  0
  4 14  1  0  0  0  0
  5  6  1  0  0  0  0
  7  8  1  0  0  0  0
  7  9  1  1  0  0  0
  8 12  2  0  0  0  0
  9 10  1  0  0  0  0
 10 11  2  0  0  0  0
 10 13  1  0  0  0  0
 13 18  1  0  0  0  0
 14 19  1  0  0  0  0
 15 16  2  0  0  0  0
 15 17  1  0  0  0  0
 18 26  1  0  0  0  0
 18 29  1  0  0  0  0
 19 20  1  0  0  0  0
 20 21  2  0  0  0  0
 20 24  1  0  0  0  0
 21 22  1  0  0  0  0
 22 23  2  0  0  0  0
 23 24  1  0  0  0  0
 23 25  1  0  0  0  0
 26 27  2  0  0  0  0
 27 28  1  0  0  0  0
 28 29  2  0  0  0  0
M  END
