1326
 OpenBabel10141417523D

 31 34  0  0  1  0  0  0  0  0999 V2000
   -3.3763   -0.6150    8.6744 S   0  0  0  0  0  0  0  0  0  0  0  0
    1.1655   -2.6160   10.1896 S   0  0  0  0  0  0  0  0  0  0  0  0
   -2.0760   -1.1512    4.5492 O   0  0  0  0  0  0  0  0  0  0  0  0
    0.3948   -2.0461    5.3840 O   0  0  0  0  0  0  0  0  0  0  0  0
   -4.2099    3.0969    5.6597 O   0  0  0  0  0  0  0  0  0  0  0  0
    0.3289   -3.8977    6.6188 O   0  0  0  0  0  0  0  0  0  0  0  0
   -6.7856    0.6259    5.4686 O   0  0  0  0  0  0  0  0  0  0  0  0
   -1.5193   -0.8331    6.8183 N   0  0  0  0  0  0  0  0  0  0  0  0
   -4.2270    0.8419    6.0338 N   0  0  0  0  0  0  0  0  0  0  0  0
    2.9537   -4.0074   11.7147 N   0  0  0  0  0  0  0  0  0  0  0  0
    1.2814   -5.2132   11.0277 N   0  0  0  0  0  0  0  0  0  0  0  0
    3.1687   -5.2375   12.2139 N   0  0  0  0  0  0  0  0  0  0  0  0
    2.1467   -5.9680   11.7858 N   0  0  0  0  0  0  0  0  0  0  0  0
   -2.2044    0.2012    7.5592 C   0  0  1  0  0  0  0  0  0  0  0  0
   -2.7495    0.7166    6.1915 C   0  0  1  0  0  0  0  0  0  0  0  0
   -2.0636   -0.5557    5.6106 C   0  0  0  0  0  0  0  0  0  0  0  0
   -0.8874   -1.9168    7.3676 C   0  0  0  0  0  0  0  0  0  0  0  0
   -1.0624   -2.2144    8.6821 C   0  0  0  0  0  0  0  0  0  0  0  0
   -2.0685   -1.4989    9.5733 C   0  0  0  0  0  0  0  0  0  0  0  0
   -0.3371   -3.3186    9.4361 C   0  0  0  0  0  0  0  0  0  0  0  0
   -4.8516    2.0577    5.7926 C   0  0  0  0  0  0  0  0  0  0  0  0
   -0.0111   -2.7393    6.4635 C   0  0  0  0  0  0  0  0  0  0  0  0
   -6.4075    1.9700    5.8001 C   0  0  1  0  0  0  0  0  0  0  0  0
   -7.1119    2.9899    4.9090 C   0  0  0  0  0  0  0  0  0  0  0  0
    1.8000   -4.0082   10.9874 C   0  0  0  0  0  0  0  0  0  0  0  0
   -7.9837    2.6177    3.8680 C   0  0  0  0  0  0  0  0  0  0  0  0
   -6.9281    4.3650    5.1390 C   0  0  0  0  0  0  0  0  0  0  0  0
   -8.5837    3.5749    3.0454 C   0  0  0  0  0  0  0  0  0  0  0  0
   -7.5383    5.3233    4.3228 C   0  0  0  0  0  0  0  0  0  0  0  0
   -8.3542    4.9274    3.2672 C   0  0  0  0  0  0  0  0  0  0  0  0
    3.8427   -2.9248   12.0279 C   0  0  0  0  0  0  0  0  0  0  0  0
  1 19  1  0  0  0  0
  2 20  1  0  0  0  0
  2 25  1  0  0  0  0
  3 16  2  0  0  0  0
  4 22  1  0  0  0  0
  5 21  2  0  0  0  0
  6 22  2  0  0  0  0
  8 14  1  0  0  0  0
  8 16  1  0  0  0  0
  8 17  1  0  0  0  0
  9 21  1  0  0  0  0
 10 12  1  0  0  0  0
 10 25  1  0  0  0  0
 10 31  1  0  0  0  0
 11 13  1  0  0  0  0
 11 25  2  0  0  0  0
 12 13  2  0  0  0  0
 14  1  1  1  0  0  0
 14 15  1  0  0  0  0
 15 16  1  0  0  0  0
 15  9  1  1  0  0  0
 17 18  2  0  0  0  0
 17 22  1  0  0  0  0
 18 19  1  0  0  0  0
 18 20  1  0  0  0  0
 23 24  1  6  0  0  0
 23 21  1  0  0  0  0
 23  7  1  0  0  0  0
 24 26  2  0  0  0  0
 24 27  1  0  0  0  0
 26 28  1  0  0  0  0
 27 29  2  0  0  0  0
 28 30  2  0  0  0  0
 29 30  1  0  0  0  0
M  END
