
 OpenBabel10141417533D

 25 27  0  0  1  0  0  0  0  0999 V2000
    0.1856   -0.6002   -0.3503 C   0  0  2  0  0  0  0  0  0  0  0  0
    0.0684    0.8432   -0.2041 N   0  0  0  0  0  0  0  0  0  0  0  0
   -1.1030    1.5510   -0.2770 C   0  0  0  0  0  0  0  0  0  0  0  0
   -2.2924    0.8866   -0.2549 C   0  0  0  0  0  0  0  0  0  0  0  0
   -2.4216   -0.6208   -0.1178 C   0  0  0  0  0  0  0  0  0  0  0  0
   -1.0207   -1.3776    0.7506 S   0  0  0  0  0  0  0  0  0  0  0  0
    1.6525   -0.4606    0.1558 C   0  0  1  0  0  0  0  0  0  0  0  0
    1.3166    1.0504    0.2532 C   0  0  0  0  0  0  0  0  0  0  0  0
    2.0339   -1.1336    1.4188 N   0  0  0  0  0  0  0  0  0  0  0  0
    2.4982   -2.4363    1.4356 C   0  0  0  0  0  0  0  0  0  0  0  0
    2.6208   -3.0867    0.4007 O   0  0  0  0  0  0  0  0  0  0  0  0
    1.8401    2.0641    0.6704 O   0  0  0  0  0  0  0  0  0  0  0  0
    2.7870   -2.9840    2.8610 C   0  0  1  0  0  0  0  0  0  0  0  0
   -3.6453    1.5678   -0.3113 C   0  0  0  0  0  0  0  0  0  0  0  0
   -1.0857    3.0597   -0.4323 C   0  0  0  0  0  0  0  0  0  0  0  0
   -2.0189    3.6936   -0.9079 O   0  0  0  0  0  0  0  0  0  0  0  0
    0.0394    3.7029   -0.0695 O   0  0  0  0  0  0  0  0  0  0  0  0
    3.9534   -3.9598    2.9097 C   0  0  0  0  0  0  0  0  0  0  0  0
    5.2590   -3.5709    2.5605 C   0  0  0  0  0  0  0  0  0  0  0  0
    6.3212   -4.4816    2.6161 C   0  0  0  0  0  0  0  0  0  0  0  0
    6.0840   -5.7915    3.0156 C   0  0  0  0  0  0  0  0  0  0  0  0
    4.8036   -6.2041    3.3571 C   0  0  0  0  0  0  0  0  0  0  0  0
    3.7425   -5.2938    3.3046 C   0  0  0  0  0  0  0  0  0  0  0  0
    2.9774   -1.8493    3.8061 N   0  0  0  0  0  0  0  0  0  0  0  0
    7.0891   -6.7105    3.0808 O   0  0  0  0  0  0  0  0  0  0  0  0
  1  2  1  1  0  0  0
  1  6  1  0  0  0  0
  1  7  1  0  0  0  0
  2  3  1  0  0  0  0
  2  8  1  0  0  0  0
  3  4  2  0  0  0  0
  3 15  1  0  0  0  0
  4  5  1  0  0  0  0
  4 14  1  0  0  0  0
  5  6  1  0  0  0  0
  7  8  1  0  0  0  0
  7  9  1  1  0  0  0
  8 12  2  0  0  0  0
  9 10  1  0  0  0  0
 10 11  2  0  0  0  0
 13 10  1  6  0  0  0
 13 18  1  0  0  0  0
 13 24  1  0  0  0  0
 15 16  2  0  0  0  0
 15 17  1  0  0  0  0
 18 19  2  0  0  0  0
 18 23  1  0  0  0  0
 19 20  1  0  0  0  0
 20 21  2  0  0  0  0
 21 22  1  0  0  0  0
 21 25  1  0  0  0  0
 22 23  2  0  0  0  0
M  END
