
 OpenBabel10141417483D

 24 26  0  0  1  0  0  0  0  0999 V2000
    2.3237   -0.7818   -1.5135 C   0  0  2  0  0  0  0  0  0  0  0  0
    0.9409   -1.2264   -1.6289 N   0  0  0  0  0  0  0  0  0  0  0  0
    0.4814   -2.0280   -2.6439 C   0  0  0  0  0  0  0  0  0  0  0  0
    1.3779   -2.7675   -3.3456 C   0  0  0  0  0  0  0  0  0  0  0  0
    2.8655   -2.8590   -3.0727 C   0  0  0  0  0  0  0  0  0  0  0  0
    3.3807   -2.2460   -1.4469 S   0  0  0  0  0  0  0  0  0  0  0  0
    1.9225   -0.1219   -0.1539 C   0  0  1  0  0  0  0  0  0  0  0  0
    0.4723   -0.5201   -0.5859 C   0  0  0  0  0  0  0  0  0  0  0  0
    2.4096   -0.7432    1.1034 N   0  0  0  0  0  0  0  0  0  0  0  0
    3.6284   -0.4046    1.6638 C   0  0  0  0  0  0  0  0  0  0  0  0
    4.3469    0.4547    1.1588 O   0  0  0  0  0  0  0  0  0  0  0  0
   -0.6633   -0.4155   -0.1606 O   0  0  0  0  0  0  0  0  0  0  0  0
    3.9964   -1.2441    2.9249 C   0  0  1  0  0  0  0  0  0  0  0  0
    0.9588   -3.8166   -4.6790 Cl  0  0  0  0  0  0  0  0  0  0  0  0
   -0.9928   -2.0878   -2.9777 C   0  0  0  0  0  0  0  0  0  0  0  0
   -1.4324   -2.4432   -4.0622 O   0  0  0  0  0  0  0  0  0  0  0  0
   -1.8525   -1.6996   -2.0160 O   0  0  0  0  0  0  0  0  0  0  0  0
    4.8107   -0.5075    3.9767 C   0  0  0  0  0  0  0  0  0  0  0  0
    5.7086   -1.2272    4.7871 C   0  0  0  0  0  0  0  0  0  0  0  0
    6.4972   -0.5756    5.7398 C   0  0  0  0  0  0  0  0  0  0  0  0
    6.3960    0.8031    5.9036 C   0  0  0  0  0  0  0  0  0  0  0  0
    5.4912    1.5268    5.1317 C   0  0  0  0  0  0  0  0  0  0  0  0
    4.6937    0.8753    4.1870 C   0  0  0  0  0  0  0  0  0  0  0  0
    2.7612   -1.8204    3.5216 N   0  0  0  0  0  0  0  0  0  0  0  0
  1  2  1  1  0  0  0
  1  6  1  0  0  0  0
  1  7  1  0  0  0  0
  2  3  1  0  0  0  0
  2  8  1  0  0  0  0
  3  4  2  0  0  0  0
  3 15  1  0  0  0  0
  4  5  1  0  0  0  0
  4 14  1  0  0  0  0
  5  6  1  0  0  0  0
  7  8  1  0  0  0  0
  7  9  1  1  0  0  0
  8 12  2  0  0  0  0
  9 10  1  0  0  0  0
 10 11  2  0  0  0  0
 13 10  1  6  0  0  0
 13 18  1  0  0  0  0
 13 24  1  0  0  0  0
 15 16  2  0  0  0  0
 15 17  1  0  0  0  0
 18 19  2  0  0  0  0
 18 23  1  0  0  0  0
 19 20  1  0  0  0  0
 20 21  2  0  0  0  0
 21 22  1  0  0  0  0
 22 23  2  0  0  0  0
M  END
