1414
 OpenBabel10141417503D

 23 24  0  0  1  0  0  0  0  0999 V2000
    0.2912   -2.9551    2.7552 S   0  0  0  0  0  0  0  0  0  0  0  0
   -2.8122   -1.6729   -0.1088 O   0  0  0  0  0  0  0  0  0  0  0  0
    0.8148   -7.2201    1.3627 O   0  0  0  0  0  0  0  0  0  0  0  0
   -2.3671   -3.9394   -1.6078 O   0  0  0  0  0  0  0  0  0  0  0  0
   -2.7275   -5.8863   -0.5738 O   0  0  0  0  0  0  0  0  0  0  0  0
   -1.3024    1.7085    3.1540 O   0  0  0  0  0  0  0  0  0  0  0  0
   -0.0653   -8.3507    3.1612 O   0  0  0  0  0  0  0  0  0  0  0  0
   -0.9129   -2.9714    0.4166 N   0  0  0  0  0  0  0  0  0  0  0  0
   -0.8764   -0.1588    1.9983 N   0  0  0  0  0  0  0  0  0  0  0  0
    1.5821    1.7643   -0.1741 N   0  0  0  0  0  0  0  0  0  0  0  0
    0.2075   -2.3305    1.0600 C   0  0  1  0  0  0  0  0  0  0  0  0
   -0.5363   -0.9865    0.8155 C   0  0  1  0  0  0  0  0  0  0  0  0
   -1.6745   -1.8689    0.2473 C   0  0  0  0  0  0  0  0  0  0  0  0
   -1.1140   -4.3158    0.3503 C   0  0  0  0  0  0  0  0  0  0  0  0
   -0.3887   -5.1533    1.1333 C   0  0  0  0  0  0  0  0  0  0  0  0
    0.5727   -4.6664    2.2081 C   0  0  0  0  0  0  0  0  0  0  0  0
   -0.4809   -6.6674    1.0646 C   0  0  0  0  0  0  0  0  0  0  0  0
   -2.1569   -4.8116   -0.6047 C   0  0  0  0  0  0  0  0  0  0  0  0
   -1.0000    1.2021    2.0725 C   0  0  0  0  0  0  0  0  0  0  0  0
   -0.8162    2.0543    0.8369 C   0  0  0  0  0  0  0  0  0  0  0  0
    0.8753   -8.0399    2.4460 C   0  0  0  0  0  0  0  0  0  0  0  0
    0.5414    1.9348    0.2905 C   0  0  0  0  0  0  0  0  0  0  0  0
    2.2889   -8.4561    2.7024 C   0  0  0  0  0  0  0  0  0  0  0  0
  1 16  1  0  0  0  0
  2 13  2  0  0  0  0
  3 17  1  0  0  0  0
  3 21  1  0  0  0  0
  4 18  1  0  0  0  0
  5 18  2  0  0  0  0
  6 19  2  0  0  0  0
  7 21  2  0  0  0  0
  8 11  1  0  0  0  0
  8 13  1  0  0  0  0
  8 14  1  0  0  0  0
  9 19  1  0  0  0  0
 10 22  3  0  0  0  0
 11  1  1  1  0  0  0
 11 12  1  0  0  0  0
 12 13  1  0  0  0  0
 12  9  1  1  0  0  0
 14 15  2  0  0  0  0
 14 18  1  0  0  0  0
 15 16  1  0  0  0  0
 15 17  1  0  0  0  0
 19 20  1  0  0  0  0
 20 22  1  0  0  0  0
 21 23  1  0  0  0  0
M  END
