535
 OpenBabel10141417523D

 26 28  0  0  1  0  0  0  0  0999 V2000
   -0.1882   -3.0065    2.6768 S   0  0  0  0  0  0  0  0  0  0  0  0
    0.6525    3.8075    6.2012 S   0  0  0  0  0  0  0  0  0  0  0  0
   -3.0953   -2.0683   -0.2916 O   0  0  0  0  0  0  0  0  0  0  0  0
   -2.9220   -4.2817   -1.5874 O   0  0  0  0  0  0  0  0  0  0  0  0
   -1.8427   -6.2166   -1.3899 O   0  0  0  0  0  0  0  0  0  0  0  0
    0.3121    1.2819    1.6026 O   0  0  0  0  0  0  0  0  0  0  0  0
   -3.3491    1.0802    2.8241 O   0  0  0  0  0  0  0  0  0  0  0  0
   -1.0364   -3.0661    0.1428 N   0  0  0  0  0  0  0  0  0  0  0  0
   -1.3587   -0.2538    1.8493 N   0  0  0  0  0  0  0  0  0  0  0  0
   -2.5021    1.7250    3.7298 N   0  0  0  0  0  0  0  0  0  0  0  0
    1.0695    2.3069    4.1677 N   0  0  0  0  0  0  0  0  0  0  0  0
    3.0046    3.2341    5.0687 N   0  0  0  0  0  0  0  0  0  0  0  0
   -0.0860   -2.3474    0.9858 C   0  0  1  0  0  0  0  0  0  0  0  0
   -0.9204   -1.0640    0.6881 C   0  0  1  0  0  0  0  0  0  0  0  0
   -1.9342   -2.0581    0.0753 C   0  0  0  0  0  0  0  0  0  0  0  0
   -1.1822   -4.4352    0.1149 C   0  0  0  0  0  0  0  0  0  0  0  0
    0.3230   -4.6672    2.1559 C   0  0  0  0  0  0  0  0  0  0  0  0
   -0.5125   -5.2121    1.0087 C   0  0  0  0  0  0  0  0  0  0  0  0
   -2.0069   -5.0718   -0.9904 C   0  0  0  0  0  0  0  0  0  0  0  0
   -0.6736    0.8888    2.2121 C   0  0  0  0  0  0  0  0  0  0  0  0
   -0.5907   -6.6694    1.0225 C   0  0  0  0  0  0  0  0  0  0  0  0
   -1.2278    1.6499    3.4320 C   0  0  0  0  0  0  0  0  0  0  0  0
    0.4762   -7.4765    0.9639 C   0  0  0  0  0  0  0  0  0  0  0  0
   -0.3109    2.3496    4.3393 C   0  0  0  0  0  0  0  0  0  0  0  0
   -0.7071    3.1078    5.4302 C   0  0  0  0  0  0  0  0  0  0  0  0
    1.6758    3.0608    5.0479 C   0  0  0  0  0  0  0  0  0  0  0  0
  1 17  1  0  0  0  0
  2 25  1  0  0  0  0
  2 26  1  0  0  0  0
  3 15  2  0  0  0  0
  4 19  1  0  0  0  0
  5 19  2  0  0  0  0
  6 20  2  0  0  0  0
  7 10  1  0  0  0  0
  8 13  1  0  0  0  0
  8 15  1  0  0  0  0
  8 16  1  0  0  0  0
  9 20  1  0  0  0  0
 10 22  2  0  0  0  0
 11 24  1  0  0  0  0
 11 26  2  0  0  0  0
 12 26  1  0  0  0  0
 13  1  1  1  0  0  0
 13 14  1  0  0  0  0
 14 15  1  0  0  0  0
 14  9  1  1  0  0  0
 16 18  2  0  0  0  0
 16 19  1  0  0  0  0
 17 18  1  0  0  0  0
 18 21  1  0  0  0  0
 20 22  1  0  0  0  0
 21 23  2  0  0  0  0
 22 24  1  0  0  0  0
 24 25  2  0  0  0  0
M  END
