
 OpenBabel10141417493D

 33 36  0  0  1  0  0  0  0  0999 V2000
   -2.2304    0.7894   -1.5596 C   0  0  0  0  0  0  0  0  0  0  0  0
   -2.5263   -0.5924   -1.0152 C   0  0  0  0  0  0  0  0  0  0  0  0
   -1.5554   -1.0126    0.4487 S   0  0  0  0  0  0  0  0  0  0  0  0
   -1.0156    1.3913   -1.4581 C   0  0  0  0  0  0  0  0  0  0  0  0
    0.0225    0.7830   -0.8195 N   0  0  0  0  0  0  0  0  0  0  0  0
    0.0382   -0.5686   -0.2968 C   0  0  1  0  0  0  0  0  0  0  0  0
    1.1277   -0.0909    0.7213 C   0  0  1  0  0  0  0  0  0  0  0  0
    0.7434    1.3506    0.2277 C   0  0  0  0  0  0  0  0  0  0  0  0
    0.8414    2.4896    0.6120 O   0  0  0  0  0  0  0  0  0  0  0  0
    1.7911    0.1236    3.1014 C   0  0  0  0  0  0  0  0  0  0  0  0
    1.4613   -0.2179    4.5542 C   0  0  0  0  0  0  0  0  0  0  0  0
    2.8099    0.7306    2.8068 O   0  0  0  0  0  0  0  0  0  0  0  0
    2.2727   -0.8954    5.3207 N   0  0  0  0  0  0  0  0  0  0  0  0
    0.1603    0.1336    5.1091 C   0  0  0  0  0  0  0  0  0  0  0  0
    3.4761   -1.1828    4.6602 O   0  0  0  0  0  0  0  0  0  0  0  0
   -0.4397   -0.5203    6.1714 C   0  0  0  0  0  0  0  0  0  0  0  0
   -1.9842    0.1480    6.4801 S   0  0  0  0  0  0  0  0  0  0  0  0
   -1.7489    1.2612    5.1968 C   0  0  0  0  0  0  0  0  0  0  0  0
   -0.6177    1.1395    4.5488 N   0  0  0  0  0  0  0  0  0  0  0  0
   -0.7318    2.7577   -2.0431 C   0  0  0  0  0  0  0  0  0  0  0  0
    0.5939    2.9094   -2.2844 O   0  0  0  0  0  0  0  0  0  0  0  0
   -1.5210    3.6282   -2.3465 O   0  0  0  0  0  0  0  0  0  0  0  0
   -3.3636    1.4215   -2.2174 C   0  0  0  0  0  0  0  0  0  0  0  0
   -4.5607    1.6114   -1.6363 C   0  0  0  0  0  0  0  0  0  0  0  0
   -5.6405    2.2141   -2.3398 C   0  0  0  0  0  0  0  0  0  0  0  0
   -6.0073    2.1885   -3.6843 C   0  0  0  0  0  0  0  0  0  0  0  0
   -7.1276    2.9374   -4.0121 N   0  0  0  0  0  0  0  0  0  0  0  0
   -7.6095    3.5058   -2.9327 C   0  0  0  0  0  0  0  0  0  0  0  0
   -6.7991    3.1577   -1.4707 S   0  0  0  0  0  0  0  0  0  0  0  0
   -5.3284    1.4619   -4.7919 C   0  0  0  0  0  0  0  0  0  0  0  0
    0.8928   -0.3654    2.1613 N   0  0  0  0  0  0  0  0  0  0  0  0
   -2.6734    2.1812    4.8856 N   0  0  0  0  0  0  0  0  0  0  0  0
    4.1269   -2.2420    5.3449 C   0  0  0  0  0  0  0  0  0  0  0  0
  1  4  2  0  0  0  0
  1  2  1  0  0  0  0
  1 23  1  0  0  0  0
  2  3  1  0  0  0  0
  4 20  1  0  0  0  0
  5  4  1  0  0  0  0
  5  6  1  0  0  0  0
  6  3  1  1  0  0  0
  6  7  1  0  0  0  0
  7  8  1  0  0  0  0
  7 31  1  1  0  0  0
  8  5  1  0  0  0  0
  8  9  2  0  0  0  0
 10 11  1  0  0  0  0
 10 12  2  0  0  0  0
 11 13  2  0  0  0  0
 11 14  1  0  0  0  0
 13 15  1  0  0  0  0
 14 16  2  0  0  0  0
 15 33  1  0  0  0  0
 16 17  1  0  0  0  0
 17 18  1  0  0  0  0
 18 19  2  0  0  0  0
 18 32  1  0  0  0  0
 19 14  1  0  0  0  0
 20 21  1  0  0  0  0
 20 22  2  0  0  0  0
 23 24  2  0  0  0  0
 24 25  1  0  0  0  0
 25 26  2  0  0  0  0
 26 27  1  0  0  0  0
 26 30  1  0  0  0  0
 27 28  2  0  0  0  0
 28 29  1  0  0  0  0
 29 25  1  0  0  0  0
 31 10  1  0  0  0  0
M  END
