1413
 OpenBabel10141417503D

 32 35  0  0  1  0  0  0  0  0999 V2000
    3.2741    2.4373   -1.8130 S   0  0  0  0  0  0  0  0  0  0  0  0
    5.3759    9.7564    2.7459 S   0  0  0  0  0  0  0  0  0  0  0  0
   -0.4954    4.8676   -0.1108 O   0  0  0  0  0  0  0  0  0  0  0  0
   -2.0291    2.8438   -1.4246 O   0  5  0  0  0  0  0  0  0  0  0  0
   -1.7634    0.6850   -2.1453 O   0  0  0  0  0  0  0  0  0  0  0  0
    4.3437    5.6695    1.3735 O   0  0  0  0  0  0  0  0  0  0  0  0
    1.7461    7.3548   -1.5887 O   0  0  0  0  0  0  0  0  0  0  0  0
    2.0844   -1.5935   -1.6728 N   0  3  0  0  0  0  0  0  0  0  0  0
    0.7509    3.0568   -1.0492 N   0  0  0  0  0  0  0  0  0  0  0  0
    2.8629    4.8644   -0.0041 N   0  0  0  0  0  0  0  0  0  0  0  0
    2.5170    8.0742   -0.7070 N   0  0  0  0  0  0  0  0  0  0  0  0
    3.7517    9.8517    0.7752 N   0  0  0  0  0  0  0  0  0  0  0  0
    4.3478   11.9365    1.6090 N   0  0  0  0  0  0  0  0  0  0  0  0
    1.7896   -3.0521   -2.0590 C   0  0  0  0  0  0  0  0  0  0  0  0
    2.4926   -1.8257   -0.2143 C   0  0  0  0  0  0  0  0  0  0  0  0
    0.8005   -0.6392   -1.7234 C   0  0  0  0  0  0  0  0  0  0  0  0
    2.9295   -3.8443   -1.3817 C   0  0  0  0  0  0  0  0  0  0  0  0
    3.4531   -2.9774   -0.2495 C   0  0  0  0  0  0  0  0  0  0  0  0
    3.1755   -1.1122   -2.6441 C   0  0  0  0  0  0  0  0  0  0  0  0
    1.0716    0.8194   -1.3626 C   0  0  0  0  0  0  0  0  0  0  0  0
    1.8255    3.4878   -1.9338 C   0  0  1  0  0  0  0  0  0  0  0  0
    1.8747    4.7541   -1.0852 C   0  0  1  0  0  0  0  0  0  0  0  0
    0.1675    1.8475   -1.3436 C   0  0  0  0  0  0  0  0  0  0  0  0
    2.4255    1.2160   -0.7925 C   0  0  0  0  0  0  0  0  0  0  0  0
    0.4363    4.3125   -0.6904 C   0  0  0  0  0  0  0  0  0  0  0  0
   -1.3879    1.7885   -1.6556 C   0  0  0  0  0  0  0  0  0  0  0  0
    3.4892    5.9626    0.5289 C   0  0  0  0  0  0  0  0  0  0  0  0
    3.2482    7.4684    0.1961 C   0  0  0  0  0  0  0  0  0  0  0  0
    3.9631    8.4856    1.0249 C   0  0  0  0  0  0  0  0  0  0  0  0
    4.8455    8.2737    2.0712 C   0  0  0  0  0  0  0  0  0  0  0  0
    4.4064   10.5977    1.6208 C   0  0  0  0  0  0  0  0  0  0  0  0
    0.9893    8.2244   -2.4292 C   0  0  0  0  0  0  0  0  0  0  0  0
  1 24  1  0  0  0  0
  2 30  1  0  0  0  0
  2 31  1  0  0  0  0
  3 25  2  0  0  0  0
  4 26  1  0  0  0  0
  5 26  2  0  0  0  0
  6 27  2  0  0  0  0
  7 11  1  0  0  0  0
  7 32  1  0  0  0  0
  8 14  1  0  0  0  0
  8 15  1  0  0  0  0
  8 16  1  0  0  0  0
  8 19  1  0  0  0  0
  9 21  1  0  0  0  0
  9 23  1  0  0  0  0
  9 25  1  0  0  0  0
 10 27  1  0  0  0  0
 11 28  2  0  0  0  0
 12 29  1  0  0  0  0
 12 31  2  0  0  0  0
 13 31  1  0  0  0  0
 14 17  1  0  0  0  0
 15 18  1  0  0  0  0
 16 20  1  0  0  0  0
 17 18  1  0  0  0  0
 20 23  2  0  0  0  0
 20 24  1  0  0  0  0
 21  1  1  1  0  0  0
 21 22  1  0  0  0  0
 22 25  1  0  0  0  0
 22 10  1  1  0  0  0
 23 26  1  0  0  0  0
 27 28  1  0  0  0  0
 28 29  1  0  0  0  0
 29 30  2  0  0  0  0
M  CHG  2   4  -1   8   1
M  END
