274
 OpenBabel10141417493D

 30 32  0  0  1  0  0  0  0  0999 V2000
    2.0454    6.2740    5.3796 S   0  0  0  0  0  0  0  0  0  0  0  0
    0.4393    4.2759    9.4585 S   0  0  0  0  0  0  0  0  0  0  0  0
   -2.1593    7.1059    2.2489 S   0  0  0  0  0  0  0  0  0  0  0  0
    2.8957    4.3010    1.9011 O   0  0  0  0  0  0  0  0  0  0  0  0
    0.2452    2.7247    3.2167 O   0  0  0  0  0  0  0  0  0  0  0  0
   -0.0563    1.4976    5.3284 O   0  0  0  0  0  0  0  0  0  0  0  0
    0.7513    1.3988    7.3834 O   0  0  0  0  0  0  0  0  0  0  0  0
   -0.1809    4.5364    1.0236 O   0  0  0  0  0  0  0  0  0  0  0  0
    1.6102    3.7516    4.7650 N   0  0  0  0  0  0  0  0  0  0  0  0
    1.0611    5.8606    2.4285 N   0  0  0  0  0  0  0  0  0  0  0  0
   -0.0556    3.8670   12.1316 N   0  0  0  0  0  0  0  0  0  0  0  0
    1.8630    3.0894   11.4746 N   0  0  0  0  0  0  0  0  0  0  0  0
    0.5502    3.4159   13.2458 N   0  0  0  0  0  0  0  0  0  0  0  0
    1.7066    2.9156   12.8313 N   0  0  0  0  0  0  0  0  0  0  0  0
   -3.9201    5.1122   -0.4400 N   0  0  0  0  0  0  0  0  0  0  0  0
    2.4979    4.8339    4.3834 C   0  0  1  0  0  0  0  0  0  0  0  0
    1.9375    4.7408    2.9039 C   0  0  2  0  0  0  0  0  0  0  0  0
    1.1045    3.5156    3.5337 C   0  0  0  0  0  0  0  0  0  0  0  0
    1.4271    3.3070    6.0552 C   0  0  0  0  0  0  0  0  0  0  0  0
    1.9012    4.0580    7.0969 C   0  0  0  0  0  0  0  0  0  0  0  0
    2.5654    5.4205    6.9063 C   0  0  0  0  0  0  0  0  0  0  0  0
    1.9045    3.6529    8.5748 C   0  0  0  0  0  0  0  0  0  0  0  0
    0.6951    2.0013    6.3217 C   0  0  0  0  0  0  0  0  0  0  0  0
    0.0620    5.6403    1.5014 C   0  0  0  0  0  0  0  0  0  0  0  0
    4.0532    5.0942    1.6921 C   0  0  0  0  0  0  0  0  0  0  0  0
   -0.7598    6.8530    1.1103 C   0  0  0  0  0  0  0  0  0  0  0  0
    0.7781    3.7052   11.0616 C   0  0  0  0  0  0  0  0  0  0  0  0
   -3.0635    5.5270    2.0107 C   0  0  0  0  0  0  0  0  0  0  0  0
   -1.4200    4.3096   12.1779 C   0  0  0  0  0  0  0  0  0  0  0  0
   -3.5444    5.2956    0.6318 C   0  0  0  0  0  0  0  0  0  0  0  0
  1 21  1  0  0  0  0
  2 22  1  0  0  0  0
  2 27  1  0  0  0  0
  3 26  1  0  0  0  0
  3 28  1  0  0  0  0
  4 25  1  0  0  0  0
  5 18  2  0  0  0  0
  6 23  1  0  0  0  0
  7 23  2  0  0  0  0
  8 24  2  0  0  0  0
  9 16  1  0  0  0  0
  9 18  1  0  0  0  0
  9 19  1  0  0  0  0
 10 24  1  0  0  0  0
 11 13  1  0  0  0  0
 11 27  1  0  0  0  0
 11 29  1  0  0  0  0
 12 14  1  0  0  0  0
 12 27  2  0  0  0  0
 13 14  2  0  0  0  0
 15 30  3  0  0  0  0
 16  1  1  1  0  0  0
 16 17  1  0  0  0  0
 17 18  1  0  0  0  0
 17  4  1  6  0  0  0
 17 10  1  0  0  0  0
 19 20  2  0  0  0  0
 19 23  1  0  0  0  0
 20 21  1  0  0  0  0
 20 22  1  0  0  0  0
 24 26  1  0  0  0  0
 28 30  1  0  0  0  0
M  END
