1329
 OpenBabel10141417493D

 44 48  0  0  1  0  0  0  0  0999 V2000
    0.4474    0.5985   -1.2257 S   0  0  0  0  0  0  0  0  0  0  0  0
    1.8754   -2.8489   -5.0577 S   0  0  0  0  0  0  0  0  0  0  0  0
   -0.8213   -2.8820    1.1535 O   0  0  0  0  0  0  0  0  0  0  0  0
   -3.3517    1.3190    0.0189 O   0  0  0  0  0  0  0  0  0  0  0  0
    2.0923   -4.4403   -1.7673 O   0  0  0  0  0  0  0  0  0  0  0  0
    0.1105   -4.6973   -0.8520 O   0  0  0  0  0  0  0  0  0  0  0  0
   -0.1223    1.3931    3.3914 O   0  0  0  0  0  0  0  0  0  0  0  0
    0.6115    4.4883    0.7843 O   0  0  0  0  0  0  0  0  0  0  0  0
    3.0365    3.9897   -0.5335 O   0  0  0  0  0  0  0  0  0  0  0  0
   -6.0346    6.8699    1.6188 O   0  0  0  0  0  0  0  0  0  0  0  0
   -0.2764   -1.8867   -0.8983 N   0  0  0  0  0  0  0  0  0  0  0  0
   -1.7055    0.2536    1.0702 N   0  0  0  0  0  0  0  0  0  0  0  0
   -1.0410    2.9276    2.0016 N   0  0  0  0  0  0  0  0  0  0  0  0
    1.2709    2.9214    2.3686 N   0  0  0  0  0  0  0  0  0  0  0  0
    3.9516    3.5492    1.5475 N   0  0  0  0  0  0  0  0  0  0  0  0
    1.0333   -5.4220   -4.5176 N   0  0  0  0  0  0  0  0  0  0  0  0
   -0.5307   -3.9117   -4.4412 N   0  0  0  0  0  0  0  0  0  0  0  0
   -0.0955   -6.0809   -4.1962 N   0  0  0  0  0  0  0  0  0  0  0  0
   -1.0432   -5.1543   -4.1564 N   0  0  0  0  0  0  0  0  0  0  0  0
   -0.8928   -0.6309   -1.2475 C   0  0  1  0  0  0  0  0  0  0  0  0
   -1.7597   -0.8119    0.0293 C   0  0  1  0  0  0  0  0  0  0  0  0
   -0.9344   -2.0778    0.2440 C   0  0  0  0  0  0  0  0  0  0  0  0
    0.7346   -2.4753   -1.6036 C   0  0  0  0  0  0  0  0  0  0  0  0
    1.4343   -1.7301   -2.5110 C   0  0  0  0  0  0  0  0  0  0  0  0
    1.3200   -0.2041   -2.6093 C   0  0  0  0  0  0  0  0  0  0  0  0
   -2.5502    1.3337    0.9528 C   0  0  0  0  0  0  0  0  0  0  0  0
    2.4966   -2.2693   -3.4546 C   0  0  0  0  0  0  0  0  0  0  0  0
   -2.4243    2.4430    2.0508 C   0  0  3  0  0  0  0  0  0  0  0  0
    0.9165   -3.9374   -1.3562 C   0  0  0  0  0  0  0  0  0  0  0  0
   -3.3906    3.6345    1.9318 C   0  0  0  0  0  0  0  0  0  0  0  0
    0.0240    2.3640    2.6491 C   0  0  0  0  0  0  0  0  0  0  0  0
    2.4424    2.3525    3.0397 C   0  0  0  0  0  0  0  0  0  0  0  0
    3.6426    3.2950    2.9441 C   0  0  0  0  0  0  0  0  0  0  0  0
   -3.3199    4.7030    2.8507 C   0  0  0  0  0  0  0  0  0  0  0  0
   -4.3834    3.7263    0.9415 C   0  0  0  0  0  0  0  0  0  0  0  0
    1.4772    3.7657    1.2697 C   0  0  0  0  0  0  0  0  0  0  0  0
    2.8999    3.7987    0.6675 C   0  0  0  0  0  0  0  0  0  0  0  0
    0.7534   -4.0906   -4.6503 C   0  0  0  0  0  0  0  0  0  0  0  0
    5.3044    3.3354    1.0420 C   0  0  0  0  0  0  0  0  0  0  0  0
   -4.1952    5.8006    2.7601 C   0  0  0  0  0  0  0  0  0  0  0  0
   -5.2524    4.8093    0.8464 C   0  0  0  0  0  0  0  0  0  0  0  0
   -5.1553    5.8400    1.7552 C   0  0  0  0  0  0  0  0  0  0  0  0
    5.9517    4.5853    0.4673 C   0  0  0  0  0  0  0  0  0  0  0  0
    2.2821   -6.1303   -4.5278 C   0  0  0  0  0  0  0  0  0  0  0  0
  1 25  1  0  0  0  0
  2 27  1  0  0  0  0
  2 38  1  0  0  0  0
  3 22  2  0  0  0  0
  4 26  2  0  0  0  0
  5 29  1  0  0  0  0
  6 29  2  0  0  0  0
  7 31  2  0  0  0  0
  8 36  2  0  0  0  0
  9 37  2  0  0  0  0
 10 42  1  0  0  0  0
 11 20  1  0  0  0  0
 11 22  1  0  0  0  0
 11 23  1  0  0  0  0
 12 26  1  0  0  0  0
 13 28  1  0  0  0  0
 13 31  1  0  0  0  0
 14 31  1  0  0  0  0
 14 32  1  0  0  0  0
 14 36  1  0  0  0  0
 15 33  1  0  0  0  0
 15 37  1  0  0  0  0
 15 39  1  0  0  0  0
 16 18  1  0  0  0  0
 16 38  1  0  0  0  0
 16 44  1  0  0  0  0
 17 19  1  0  0  0  0
 17 38  2  0  0  0  0
 18 19  2  0  0  0  0
 20  1  1  1  0  0  0
 20 21  1  0  0  0  0
 21 22  1  0  0  0  0
 21 12  1  1  0  0  0
 23 24  2  0  0  0  0
 23 29  1  0  0  0  0
 24 25  1  0  0  0  0
 24 27  1  0  0  0  0
 26 28  1  0  0  0  0
 28 30  1  0  0  0  0
 30 34  2  0  0  0  0
 30 35  1  0  0  0  0
 32 33  1  0  0  0  0
 34 40  1  0  0  0  0
 35 41  2  0  0  0  0
 36 37  1  0  0  0  0
 39 43  1  0  0  0  0
 40 42  2  0  0  0  0
 41 42  1  0  0  0  0
M  END
