
 OpenBabel10141417563D

 30 32  0  0  1  0  0  0  0  0999 V2000
   -0.2717   -0.4030    0.4289 C   0  0  2  0  0  0  0  0  0  0  0  0
    0.3455    0.5111    1.3681 N   0  0  0  0  0  0  0  0  0  0  0  0
    0.2034    1.8739    1.3378 C   0  0  0  0  0  0  0  0  0  0  0  0
   -0.7964    2.4440    0.6103 C   0  0  0  0  0  0  0  0  0  0  0  0
   -1.8807    1.6497   -0.1030 C   0  0  0  0  0  0  0  0  0  0  0  0
   -2.0412   -0.0849    0.3970 S   0  0  0  0  0  0  0  0  0  0  0  0
    0.2406   -1.5680    1.3325 C   0  0  1  0  0  0  0  0  0  0  0  0
    0.9358   -0.4260    2.1288 C   0  0  0  0  0  0  0  0  0  0  0  0
   -0.7194   -2.3605    2.1725 N   0  0  0  0  0  0  0  0  0  0  0  0
   -1.2028   -3.5940    1.7732 C   0  0  0  0  0  0  0  0  0  0  0  0
   -1.0318   -4.0616    0.6551 O   0  0  0  0  0  0  0  0  0  0  0  0
    1.6093   -0.3956    3.1529 O   0  0  0  0  0  0  0  0  0  0  0  0
   -1.9208   -4.4397    2.8337 C   0  0  0  0  0  0  0  0  0  0  0  0
   -1.0741    3.9354    0.4757 C   0  0  0  0  0  0  0  0  0  0  0  0
   -3.1077   -5.1977    2.4423 C   0  0  0  0  0  0  0  0  0  0  0  0
   -3.4288   -6.4524    2.9331 C   0  0  0  0  0  0  0  0  0  0  0  0
   -4.8426   -7.0422    2.1691 S   0  0  0  0  0  0  0  0  0  0  0  0
   -4.9231   -5.6076    1.2323 C   0  0  0  0  0  0  0  0  0  0  0  0
   -3.9869   -4.7250    1.4729 N   0  0  0  0  0  0  0  0  0  0  0  0
   -1.4830   -4.6157    4.0531 N   0  0  0  0  0  0  0  0  0  0  0  0
    1.1643    2.7026    2.1545 C   0  0  0  0  0  0  0  0  0  0  0  0
    2.3259    2.0672    2.3874 O   0  0  0  0  0  0  0  0  0  0  0  0
    0.9963    3.8300    2.5792 O   0  0  0  0  0  0  0  0  0  0  0  0
   -5.8987   -5.4148    0.3322 N   0  0  0  0  0  0  0  0  0  0  0  0
   -0.4997    4.4699   -0.7302 O   0  0  0  0  0  0  0  0  0  0  0  0
   -1.3777    4.8775   -1.6885 C   0  0  0  0  0  0  0  0  0  0  0  0
   -0.7195    5.8640   -2.6084 C   0  0  0  0  0  0  0  0  0  0  0  0
   -2.5486    4.5347   -1.7689 O   0  0  0  0  0  0  0  0  0  0  0  0
   -0.2968   -3.9163    4.3078 O   0  0  0  0  0  0  0  0  0  0  0  0
    0.4385   -4.6143    5.3083 C   0  0  0  0  0  0  0  0  0  0  0  0
  1  2  1  1  0  0  0
  1  6  1  0  0  0  0
  1  7  1  0  0  0  0
  2  3  1  0  0  0  0
  2  8  1  0  0  0  0
  3  4  2  0  0  0  0
  3 21  1  0  0  0  0
  4  5  1  0  0  0  0
  4 14  1  0  0  0  0
  5  6  1  0  0  0  0
  7  8  1  0  0  0  0
  7  9  1  1  0  0  0
  8 12  2  0  0  0  0
  9 10  1  0  0  0  0
 10 11  2  0  0  0  0
 10 13  1  0  0  0  0
 13 15  1  0  0  0  0
 13 20  2  0  0  0  0
 14 25  1  0  0  0  0
 15 16  2  0  0  0  0
 15 19  1  0  0  0  0
 16 17  1  0  0  0  0
 17 18  1  0  0  0  0
 18 19  2  0  0  0  0
 18 24  1  0  0  0  0
 20 29  1  0  0  0  0
 21 22  1  0  0  0  0
 21 23  2  0  0  0  0
 25 26  1  0  0  0  0
 26 27  1  0  0  0  0
 26 28  2  0  0  0  0
 29 30  1  0  0  0  0
M  END
