
 OpenBabel10141417483D

 35 38  0  0  1  0  0  0  0  0999 V2000
   -0.5249   -1.7351   -0.0618 S   0  0  0  0  0  0  0  0  0  0  0  0
    0.4979   -0.3527   -0.6089 C   0  0  1  0  0  0  0  0  0  0  0  0
    0.1070    0.8335    0.1305 N   0  0  0  0  0  0  0  0  0  0  0  0
   -1.1756    1.3068    0.2564 C   0  0  0  0  0  0  0  0  0  0  0  0
   -2.2255    0.5027   -0.0836 C   0  0  0  0  0  0  0  0  0  0  0  0
   -2.0729   -0.9372   -0.5643 C   0  0  0  0  0  0  0  0  0  0  0  0
    1.9059   -0.2184    0.0479 C   0  0  1  0  0  0  0  0  0  0  0  0
    1.2864    1.0154    0.7581 C   0  0  0  0  0  0  0  0  0  0  0  0
   -1.4091    2.7201    0.7634 C   0  0  0  0  0  0  0  0  0  0  0  0
   -2.4308    3.3532    0.5420 O   0  0  0  0  0  0  0  0  0  0  0  0
   -0.4002    3.3084    1.4295 O   0  0  0  0  0  0  0  0  0  0  0  0
    1.5914    1.7972    1.6369 O   0  0  0  0  0  0  0  0  0  0  0  0
    2.3812   -1.3115    0.9473 N   0  0  0  0  0  0  0  0  0  0  0  0
    3.7328   -1.5524    1.1396 C   0  0  0  0  0  0  0  0  0  0  0  0
    4.0315   -2.6489    2.1913 C   0  0  1  0  0  0  0  0  0  0  0  0
    5.5098   -2.9601    2.3696 C   0  0  0  0  0  0  0  0  0  0  0  0
    4.5897   -0.9259    0.5227 O   0  0  0  0  0  0  0  0  0  0  0  0
   -3.7048    0.8764    0.0215 C   0  0  0  0  0  0  0  0  0  0  0  0
   -4.2940    0.3648    1.6676 S   0  0  0  0  0  0  0  0  0  0  0  0
   -7.9068    1.4945    1.0382 N   0  0  0  0  0  0  0  0  0  0  0  0
   -8.0532    1.0193    2.2667 N   0  0  0  0  0  0  0  0  0  0  0  0
   -6.8170    0.6511    2.6546 N   0  0  0  0  0  0  0  0  0  0  0  0
   -5.9500    0.8356    1.6171 C   0  0  0  0  0  0  0  0  0  0  0  0
   -6.6079    1.3564    0.6084 N   0  0  0  0  0  0  0  0  0  0  0  0
   -6.6106    0.0423    3.9367 C   0  0  0  0  0  0  0  0  0  0  0  0
    6.1698   -2.7977    3.5977 C   0  0  0  0  0  0  0  0  0  0  0  0
    7.5251   -3.1141    3.7319 C   0  0  0  0  0  0  0  0  0  0  0  0
    8.2432   -3.6013    2.6430 C   0  0  0  0  0  0  0  0  0  0  0  0
    7.6086   -3.7688    1.4160 C   0  0  0  0  0  0  0  0  0  0  0  0
    6.2533   -3.4554    1.2812 C   0  0  0  0  0  0  0  0  0  0  0  0
    3.4000   -2.2557    3.4154 O   0  0  0  0  0  0  0  0  0  0  0  0
   -6.7204    1.1749    5.3015 S   0  0  0  0  0  0  0  0  0  0  0  0
   -8.2427    1.6781    5.1240 O   0  0  0  0  0  0  0  0  0  0  0  0
   -6.7088    0.4214    6.5373 O   0  0  0  0  0  0  0  0  0  0  0  0
   -5.8371    2.2966    5.0868 O   0  0  0  0  0  0  0  0  0  0  0  0
  1  6  1  0  0  0  0
  2  1  1  1  0  0  0
  2  3  1  0  0  0  0
  2  7  1  0  0  0  0
  3  4  1  0  0  0  0
  3  8  1  0  0  0  0
  4  5  2  0  0  0  0
  4  9  1  0  0  0  0
  5  6  1  0  0  0  0
  5 18  1  0  0  0  0
  7  8  1  0  0  0  0
  7 13  1  1  0  0  0
  8 12  2  0  0  0  0
  9 10  2  0  0  0  0
  9 11  1  0  0  0  0
 13 14  1  0  0  0  0
 14 17  2  0  0  0  0
 15 14  1  6  0  0  0
 15 16  1  0  0  0  0
 15 31  1  0  0  0  0
 18 19  1  0  0  0  0
 19 23  1  0  0  0  0
 20 21  2  0  0  0  0
 20 24  1  0  0  0  0
 21 22  1  0  0  0  0
 22 23  1  0  0  0  0
 22 25  1  0  0  0  0
 23 24  2  0  0  0  0
 25 32  1  0  0  0  0
 26 16  1  0  0  0  0
 26 27  2  0  0  0  0
 27 28  1  0  0  0  0
 28 29  2  0  0  0  0
 29 30  1  0  0  0  0
 30 16  2  0  0  0  0
 32 33  1  0  0  0  0
 32 34  2  0  0  0  0
 32 35  2  0  0  0  0
M  END
