
 OpenBabel10141417493D

 28 30  0  0  1  0  0  0  0  0999 V2000
    6.0695    1.9796   -0.2506 S   0  0  0  0  0  0  0  0  0  0  0  0
    6.5185    0.0514    3.5481 S   0  0  0  0  0  0  0  0  0  0  0  0
    6.6680    5.5966    1.1184 O   0  0  0  0  0  0  0  0  0  0  0  0
    3.3606    5.3071    1.5625 O   0  0  0  0  0  0  0  0  0  0  0  0
    3.7267    0.5805   -3.6541 O   0  0  0  0  0  0  0  0  0  0  0  0
    1.6900    4.8350   -0.3774 O   0  0  0  0  0  0  0  0  0  0  0  0
    7.1341    4.7238    4.0917 O   0  0  0  0  0  0  0  0  0  0  0  0
    1.0892    3.2874   -1.8425 O   0  0  0  0  0  0  0  0  0  0  0  0
    3.5915   -0.9087   -1.9125 O   0  0  0  0  0  0  0  0  0  0  0  0
    4.2546    3.8928   -0.1380 N   0  0  0  0  0  0  0  0  0  0  0  0
    6.0307    3.4657    2.4598 N   0  0  0  0  0  0  0  0  0  0  0  0
    4.8219   -1.3561   -3.7563 N   0  0  0  0  0  0  0  0  0  0  0  0
    5.8068    4.4325    1.2666 C   0  0  2  0  0  0  0  0  0  0  0  0
    5.6950    3.7284   -0.1515 C   0  0  1  0  0  0  0  0  0  0  0  0
    4.2249    4.7231    0.9883 C   0  0  0  0  0  0  0  0  0  0  0  0
    3.4147    3.3253   -1.0473 C   0  0  0  0  0  0  0  0  0  0  0  0
    3.8664    2.3459   -1.8979 C   0  0  0  0  0  0  0  0  0  0  0  0
    5.3268    1.9239   -1.8995 C   0  0  0  0  0  0  0  0  0  0  0  0
    2.9859    1.5675   -2.8917 C   0  0  0  0  0  0  0  0  0  0  0  0
    6.6071    3.6817    3.7093 C   0  0  0  0  0  0  0  0  0  0  0  0
    1.9570    3.7643   -1.1380 C   0  0  0  0  0  0  0  0  0  0  0  0
    6.7853    6.4927    2.2003 C   0  0  0  0  0  0  0  0  0  0  0  0
    6.5052    2.5531    4.7357 C   0  0  0  0  0  0  0  0  0  0  0  0
    7.3054    1.3349    4.3728 C   0  0  0  0  0  0  0  0  0  0  0  0
    8.6199    1.0037    4.6689 C   0  0  0  0  0  0  0  0  0  0  0  0
    3.9573   -0.6035   -3.0241 C   0  0  0  0  0  0  0  0  0  0  0  0
    8.9752   -0.2979    4.1911 C   0  0  0  0  0  0  0  0  0  0  0  0
    7.9220   -0.9190    3.5611 C   0  0  0  0  0  0  0  0  0  0  0  0
  1 18  1  0  0  0  0
  2 24  1  0  0  0  0
  2 28  1  0  0  0  0
  3 22  1  0  0  0  0
  4 15  2  0  0  0  0
  5 19  1  0  0  0  0
  5 26  1  0  0  0  0
  6 21  1  0  0  0  0
  7 20  2  0  0  0  0
  8 21  2  0  0  0  0
  9 26  2  0  0  0  0
 10 14  1  0  0  0  0
 10 15  1  0  0  0  0
 10 16  1  0  0  0  0
 11 20  1  0  0  0  0
 11 13  1  0  0  0  0
 12 26  1  0  0  0  0
 13 14  1  0  0  0  0
 13 15  1  0  0  0  0
 13  3  1  1  0  0  0
 14  1  1  1  0  0  0
 16 17  2  0  0  0  0
 16 21  1  0  0  0  0
 17 18  1  0  0  0  0
 17 19  1  0  0  0  0
 20 23  1  0  0  0  0
 23 24  1  0  0  0  0
 24 25  2  0  0  0  0
 25 27  1  0  0  0  0
 27 28  2  0  0  0  0
M  END
