923
 OpenBabel10141417503D

 35 38  0  0  1  0  0  0  0  0999 V2000
   -0.8204   -3.2173    2.7279 S   0  0  0  0  0  0  0  0  0  0  0  0
   -3.8712   -6.9517    2.3804 S   0  0  0  0  0  0  0  0  0  0  0  0
   -3.5622   -1.4541   -0.0254 O   0  0  0  0  0  0  0  0  0  0  0  0
   -3.4198   -3.6464   -1.7993 O   0  0  0  0  0  0  0  0  0  0  0  0
   -2.0474    1.6093    1.1029 O   0  0  0  0  0  0  0  0  0  0  0  0
   -4.2656   -5.4334   -0.7812 O   0  0  0  0  0  0  0  0  0  0  0  0
   -4.1695   -9.0388    6.7696 O   0  0  0  0  0  0  0  0  0  0  0  0
   -2.7359   -9.6129    5.1696 O   0  0  0  0  0  0  0  0  0  0  0  0
   -1.8146   -3.0138    0.2478 N   0  0  0  0  0  0  0  0  0  0  0  0
   -1.3275   -0.3151    2.0910 N   0  0  0  0  0  0  0  0  0  0  0  0
   -4.7175   -9.4457    3.2119 N   0  0  0  0  0  0  0  0  0  0  0  0
   -4.0544   -9.3871    1.1427 N   0  0  0  0  0  0  0  0  0  0  0  0
   -2.8664    3.0452    6.0906 N   0  0  0  0  0  0  0  0  0  0  0  0
   -4.8790  -10.7006    2.7437 N   0  0  0  0  0  0  0  0  0  0  0  0
   -4.4706  -10.6552    1.4838 N   0  0  0  0  0  0  0  0  0  0  0  0
   -0.6659   -2.6040    1.0270 C   0  0  1  0  0  0  0  0  0  0  0  0
   -1.1472   -1.1130    0.8318 C   0  0  1  0  0  0  0  0  0  0  0  0
   -2.4189   -1.7910    0.2272 C   0  0  0  0  0  0  0  0  0  0  0  0
   -2.3777   -4.2751    0.2437 C   0  0  0  0  0  0  0  0  0  0  0  0
   -2.0218   -5.2326    1.1456 C   0  0  0  0  0  0  0  0  0  0  0  0
   -1.0738   -4.9528    2.2970 C   0  0  0  0  0  0  0  0  0  0  0  0
   -2.5252   -6.6992    1.1588 C   0  0  0  0  0  0  0  0  0  0  0  0
   -1.7226    1.0031    2.1232 C   0  0  0  0  0  0  0  0  0  0  0  0
   -3.4478   -4.5314   -0.7847 C   0  0  0  0  0  0  0  0  0  0  0  0
   -1.7831    1.6669    3.5051 C   0  0  0  0  0  0  0  0  0  0  0  0
   -0.8025    1.2217    4.5932 C   0  0  0  0  0  0  0  0  0  0  0  0
   -1.1290    1.3028    5.9746 C   0  0  0  0  0  0  0  0  0  0  0  0
    0.5241    0.8929    4.2465 C   0  0  0  0  0  0  0  0  0  0  0  0
   -4.2090   -8.6489    2.2186 C   0  0  0  0  0  0  0  0  0  0  0  0
   -2.4955    1.6973    6.4977 C   0  0  0  0  0  0  0  0  0  0  0  0
   -0.1312    1.0387    6.9391 C   0  0  0  0  0  0  0  0  0  0  0  0
    1.4969    0.6473    5.2195 C   0  0  0  0  0  0  0  0  0  0  0  0
    1.1723    0.7268    6.5659 C   0  0  0  0  0  0  0  0  0  0  0  0
   -5.0654   -9.1511    4.5793 C   0  0  0  0  0  0  0  0  0  0  0  0
   -3.8762   -9.3125    5.4795 C   0  0  0  0  0  0  0  0  0  0  0  0
  1 21  1  0  0  0  0
  2 22  1  0  0  0  0
  2 29  1  0  0  0  0
  3 18  2  0  0  0  0
  4 24  1  0  0  0  0
  5 23  2  0  0  0  0
  6 24  2  0  0  0  0
  7 35  1  0  0  0  0
  8 35  2  0  0  0  0
  9 16  1  0  0  0  0
  9 18  1  0  0  0  0
  9 19  1  0  0  0  0
 10 23  1  0  0  0  0
 11 14  1  0  0  0  0
 11 29  1  0  0  0  0
 11 34  1  0  0  0  0
 12 15  1  0  0  0  0
 12 29  2  0  0  0  0
 13 30  1  0  0  0  0
 14 15  2  0  0  0  0
 16  1  1  1  0  0  0
 16 17  1  0  0  0  0
 17 18  1  0  0  0  0
 17 10  1  1  0  0  0
 19 20  2  0  0  0  0
 19 24  1  0  0  0  0
 20 21  1  0  0  0  0
 20 22  1  0  0  0  0
 23 25  1  0  0  0  0
 25 26  1  0  0  0  0
 26 27  1  0  0  0  0
 26 28  2  0  0  0  0
 27 30  1  0  0  0  0
 27 31  2  0  0  0  0
 28 32  1  0  0  0  0
 31 33  1  0  0  0  0
 32 33  2  0  0  0  0
 34 35  1  0  0  0  0
M  END
