
 OpenBabel10141417493D

 36 39  0  0  1  0  0  0  0  0999 V2000
   -1.8445    0.7317   -0.0402 C   0  0  0  0  0  0  0  0  0  0  0  0
   -1.7879   -0.6171   -0.7332 C   0  0  0  0  0  0  0  0  0  0  0  0
   -0.4564   -1.6581   -0.1055 S   0  0  0  0  0  0  0  0  0  0  0  0
   -0.7362    1.3545    0.4459 C   0  0  0  0  0  0  0  0  0  0  0  0
    0.5172    0.7857    0.3384 N   0  0  0  0  0  0  0  0  0  0  0  0
    0.8193   -0.3950   -0.4619 C   0  0  1  0  0  0  0  0  0  0  0  0
    2.1949   -0.5029    0.3375 C   0  0  1  0  0  0  0  0  0  0  0  0
    1.4511    0.5343    1.3001 C   0  0  0  0  0  0  0  0  0  0  0  0
   -0.8090    2.7214    1.0768 C   0  0  0  0  0  0  0  0  0  0  0  0
    0.4080    3.2332    1.3380 O   0  0  0  0  0  0  0  0  0  0  0  0
   -1.8031    3.3961    1.2771 O   0  0  0  0  0  0  0  0  0  0  0  0
    1.5814    0.9088    2.4551 O   0  0  0  0  0  0  0  0  0  0  0  0
    2.4943   -1.8464    0.9327 N   0  0  0  0  0  0  0  0  0  0  0  0
    3.3397    0.1035   -0.3375 O   0  0  0  0  0  0  0  0  0  0  0  0
    4.5890    0.0818    0.3358 C   0  0  0  0  0  0  0  0  0  0  0  0
    2.6130   -2.9790    0.1316 C   0  0  0  0  0  0  0  0  0  0  0  0
    2.9412   -4.3064    0.9245 C   0  0  3  0  0  0  0  0  0  0  0  0
    2.4924   -2.8664   -1.0929 O   0  0  0  0  0  0  0  0  0  0  0  0
    3.1685   -5.7514   -0.1697 S   0  0  0  0  0  0  0  0  0  0  0  0
    2.5623   -6.4224    1.3374 C   0  0  0  0  0  0  0  0  0  0  0  0
    1.4567   -5.0928    1.6544 S   0  0  0  0  0  0  0  0  0  0  0  0
    2.7925   -7.5958    1.9741 C   0  0  0  0  0  0  0  0  0  0  0  0
    3.7531   -8.5744    1.4232 C   0  0  0  0  0  0  0  0  0  0  0  0
    2.0627   -7.8739    3.2488 C   0  0  0  0  0  0  0  0  0  0  0  0
    1.9046   -9.1856    3.5914 N   0  0  0  0  0  0  0  0  0  0  0  0
    1.6013   -7.0115    3.9881 O   0  0  0  0  0  0  0  0  0  0  0  0
    4.0086   -8.4646    0.1110 O   0  0  0  0  0  0  0  0  0  0  0  0
    4.2560   -9.4902    2.0572 O   0  0  0  0  0  0  0  0  0  0  0  0
   -3.2716    1.2606    0.0464 C   0  0  0  0  0  0  0  0  0  0  0  0
   -4.0295    0.6797    1.6015 S   0  0  0  0  0  0  0  0  0  0  0  0
   -5.6105    1.3646    1.4937 C   0  0  0  0  0  0  0  0  0  0  0  0
   -6.2822    1.6629    0.4056 N   0  0  0  0  0  0  0  0  0  0  0  0
   -7.5048    2.1300    0.8363 N   0  0  0  0  0  0  0  0  0  0  0  0
   -7.5803    2.1228    2.1612 N   0  0  0  0  0  0  0  0  0  0  0  0
   -6.3903    1.6525    2.5774 N   0  0  0  0  0  0  0  0  0  0  0  0
   -6.0790    1.5939    3.9781 C   0  0  0  0  0  0  0  0  0  0  0  0
  1  2  1  0  0  0  0
  1  4  2  0  0  0  0
  1 29  1  0  0  0  0
  2  3  1  0  0  0  0
  4  9  1  0  0  0  0
  5  4  1  0  0  0  0
  5  6  1  0  0  0  0
  6  3  1  1  0  0  0
  6  7  1  0  0  0  0
  7  8  1  0  0  0  0
  7 14  1  6  0  0  0
  7 13  1  0  0  0  0
  8  5  1  0  0  0  0
  8 12  2  0  0  0  0
  9 10  1  0  0  0  0
  9 11  2  0  0  0  0
 13 16  1  0  0  0  0
 14 15  1  0  0  0  0
 16 18  2  0  0  0  0
 16 17  1  0  0  0  0
 17 19  1  0  0  0  0
 19 20  1  0  0  0  0
 20 21  1  0  0  0  0
 20 22  2  0  0  0  0
 21 17  1  0  0  0  0
 22 23  1  0  0  0  0
 22 24  1  0  0  0  0
 23 27  1  0  0  0  0
 23 28  2  0  0  0  0
 24 25  1  0  0  0  0
 24 26  2  0  0  0  0
 29 30  1  0  0  0  0
 30 31  1  0  0  0  0
 31 32  2  0  0  0  0
 32 33  1  0  0  0  0
 33 34  2  0  0  0  0
 34 35  1  0  0  0  0
 35 31  1  0  0  0  0
 35 36  1  0  0  0  0
M  END
