
 OpenBabel10141417483D

 42 46  0  0  1  0  0  0  0  0999 V2000
   -2.1247   -2.4143    4.6158 N   0  0  0  0  0  0  0  0  0  0  0  0
   -2.9666   -2.6846    3.5848 C   0  0  0  0  0  0  0  0  0  0  0  0
   -1.8298   -3.4204    2.8318 C   0  0  2  0  0  0  0  0  0  0  0  0
   -0.9676   -3.1032    4.0927 C   0  0  1  0  0  0  0  0  0  0  0  0
   -0.5878   -1.0935   10.4484 C   0  0  0  0  0  0  0  0  0  0  0  0
   -2.1702   -1.8868    5.8602 C   0  0  0  0  0  0  0  0  0  0  0  0
   -1.6836   -0.7980   11.2035 N   0  0  0  0  0  0  0  0  0  0  0  0
    0.4568   -0.4918   10.9660 N   0  0  0  0  0  0  0  0  0  0  0  0
   -0.0097    0.1737   12.0767 N   0  0  0  0  0  0  0  0  0  0  0  0
   -1.3160   -0.0069   12.2284 N   0  0  0  0  0  0  0  0  0  0  0  0
   -1.3423   -2.8900    1.5180 N   0  0  0  0  0  0  0  0  0  0  0  0
    1.7663   -1.4713   -0.8770 C   0  0  0  0  0  0  0  0  0  0  0  0
    0.3216   -1.8409    3.9346 S   0  0  0  0  0  0  0  0  0  0  0  0
    2.3836   -0.1734   -0.4737 C   0  0  0  0  0  0  0  0  0  0  0  0
   -1.0171   -1.4340    6.4187 C   0  0  0  0  0  0  0  0  0  0  0  0
   -0.7036   -3.7430    0.6282 C   0  0  0  0  0  0  0  0  0  0  0  0
    0.5471   -1.8306   -0.3399 N   0  0  0  0  0  0  0  0  0  0  0  0
   -0.1204   -3.1173   -0.6664 C   0  0  2  0  0  0  0  0  0  0  0  0
    3.2038    0.5170   -1.3719 C   0  0  0  0  0  0  0  0  0  0  0  0
   -3.4872   -1.8622    6.5859 C   0  0  0  0  0  0  0  0  0  0  0  0
   -0.6007   -2.0887    9.0391 S   0  0  0  0  0  0  0  0  0  0  0  0
    2.2488    0.3954    0.7848 C   0  0  0  0  0  0  0  0  0  0  0  0
    2.8617    1.5504    1.1803 N   0  0  0  0  0  0  0  0  0  0  0  0
    0.3322   -1.4152    5.7037 C   0  0  0  0  0  0  0  0  0  0  0  0
    3.8425    1.7002   -1.0043 C   0  0  0  0  0  0  0  0  0  0  0  0
   -0.9286   -0.8082    7.7961 C   0  0  0  0  0  0  0  0  0  0  0  0
   -1.0786   -3.0125   -1.8686 C   0  0  0  0  0  0  0  0  0  0  0  0
    2.3506   -2.1493   -1.7196 O   0  0  0  0  0  0  0  0  0  0  0  0
   -0.6441   -4.9522    0.8572 O   0  0  0  0  0  0  0  0  0  0  0  0
   -3.8113   -1.1351    7.5071 O   0  0  0  0  0  0  0  0  0  0  0  0
    3.6666    2.1792    0.2863 C   0  0  0  0  0  0  0  0  0  0  0  0
   -0.5652   -3.2618   -3.1631 C   0  0  0  0  0  0  0  0  0  0  0  0
   -2.4330   -2.6411   -1.7926 C   0  0  0  0  0  0  0  0  0  0  0  0
    3.4276    0.0879   -2.6549 O   0  0  0  0  0  0  0  0  0  0  0  0
   -3.0536   -1.2000   11.0605 C   0  0  0  0  0  0  0  0  0  0  0  0
   -4.3064   -2.8498    6.1820 O   0  0  0  0  0  0  0  0  0  0  0  0
   -2.6328   -2.5995   -4.2125 C   0  0  0  0  0  0  0  0  0  0  0  0
   -3.1802   -2.3743   -2.9574 C   0  0  0  0  0  0  0  0  0  0  0  0
   -1.3397   -3.0858   -4.3234 C   0  0  0  0  0  0  0  0  0  0  0  0
   -3.4155   -2.3566   -5.3027 O   0  0  0  0  0  0  0  0  0  0  0  0
    4.3899    3.4225    0.7269 C   0  0  0  0  0  0  0  0  0  0  0  0
   -4.1082   -2.4319    3.3657 O   0  0  0  0  0  0  0  0  0  0  0  0
  2  1  1  0  0  0  0
  2 42  2  0  0  0  0
  3  2  1  0  0  0  0
  3 11  1  6  0  0  0
  4  1  1  1  0  0  0
  4  3  1  0  0  0  0
  6  1  1  0  0  0  0
  7  5  1  0  0  0  0
  8  5  2  0  0  0  0
  9  8  1  0  0  0  0
 10  7  1  0  0  0  0
 10  9  2  0  0  0  0
 13  4  1  0  0  0  0
 14 12  1  0  0  0  0
 15  6  2  0  0  0  0
 16 11  1  0  0  0  0
 17 12  1  0  0  0  0
 18 27  1  6  0  0  0
 18 17  1  0  0  0  0
 18 16  1  0  0  0  0
 19 14  2  0  0  0  0
 20  6  1  0  0  0  0
 21  5  1  0  0  0  0
 22 14  1  0  0  0  0
 23 22  2  0  0  0  0
 24 13  1  0  0  0  0
 24 15  1  0  0  0  0
 25 19  1  0  0  0  0
 26 21  1  0  0  0  0
 26 15  1  0  0  0  0
 28 12  2  0  0  0  0
 29 16  2  0  0  0  0
 30 20  2  0  0  0  0
 31 23  1  0  0  0  0
 31 25  2  0  0  0  0
 32 27  1  0  0  0  0
 33 27  2  0  0  0  0
 34 19  1  0  0  0  0
 35  7  1  0  0  0  0
 36 20  1  0  0  0  0
 38 33  1  0  0  0  0
 38 37  2  0  0  0  0
 39 32  2  0  0  0  0
 39 37  1  0  0  0  0
 40 37  1  0  0  0  0
 41 31  1  0  0  0  0
M  END
