1416
 OpenBabel10141417513D

 28 30  0  0  1  0  0  0  0  0999 V2000
    0.5546   -4.6024    3.1928 S   0  0  0  0  0  0  0  0  0  0  0  0
   -1.5449    2.5268    7.1430 S   0  0  0  0  0  0  0  0  0  0  0  0
   -2.7239   -3.1158    0.4375 O   0  0  0  0  0  0  0  0  0  0  0  0
   -0.3291   -8.7124    1.5069 O   0  0  0  0  0  0  0  0  0  0  0  0
   -2.8232   -5.3674   -0.6976 O   0  0  0  0  0  0  0  0  0  0  0  0
   -1.4704   -7.0426   -1.2486 O   0  0  0  0  0  0  0  0  0  0  0  0
   -1.5945    0.1305    3.0477 O   0  0  0  0  0  0  0  0  0  0  0  0
   -2.8736   -3.0508    4.8485 O   0  0  0  0  0  0  0  0  0  0  0  0
   -0.7678   -4.2707    0.9402 N   0  0  0  0  0  0  0  0  0  0  0  0
   -1.1375   -2.1123    3.2224 N   0  0  0  0  0  0  0  0  0  0  0  0
   -2.6881   -1.9644    5.7065 N   0  0  0  0  0  0  0  0  0  0  0  0
   -2.4491    0.1505    7.4002 N   0  0  0  0  0  0  0  0  0  0  0  0
   -2.5634    1.4348    9.3500 N   0  0  0  0  0  0  0  0  0  0  0  0
    0.2876   -3.6206    1.6928 C   0  0  1  0  0  0  0  0  0  0  0  0
   -0.6558   -2.3796    1.8377 C   0  0  1  0  0  0  0  0  0  0  0  0
   -1.6059   -3.2163    0.9171 C   0  0  0  0  0  0  0  0  0  0  0  0
   -0.7172   -5.5815    0.5229 C   0  0  0  0  0  0  0  0  0  0  0  0
    0.2029   -6.4242    1.0798 C   0  0  0  0  0  0  0  0  0  0  0  0
    1.0986   -6.0513    2.2552 C   0  0  0  0  0  0  0  0  0  0  0  0
    0.4714   -7.8727    0.6798 C   0  0  0  0  0  0  0  0  0  0  0  0
   -1.6865   -6.0732   -0.5348 C   0  0  0  0  0  0  0  0  0  0  0  0
   -1.6031   -0.9032    3.7006 C   0  0  0  0  0  0  0  0  0  0  0  0
   -2.1118   -0.9214    5.1670 C   0  0  0  0  0  0  0  0  0  0  0  0
   -1.9962    0.2446    6.0698 C   0  0  0  0  0  0  0  0  0  0  0  0
   -0.1679  -10.0962    1.2092 C   0  0  0  0  0  0  0  0  0  0  0  0
   -1.4845    1.4951    5.7695 C   0  0  0  0  0  0  0  0  0  0  0  0
   -2.2465    1.2622    8.0572 C   0  0  0  0  0  0  0  0  0  0  0  0
   -4.0218   -3.7661    5.2986 C   0  0  0  0  0  0  0  0  0  0  0  0
  1 19  1  0  0  0  0
  2 26  1  0  0  0  0
  2 27  1  0  0  0  0
  3 16  2  0  0  0  0
  4 20  1  0  0  0  0
  4 25  1  0  0  0  0
  5 21  1  0  0  0  0
  6 21  2  0  0  0  0
  7 22  2  0  0  0  0
  8 11  1  0  0  0  0
  8 28  1  0  0  0  0
  9 14  1  0  0  0  0
  9 16  1  0  0  0  0
  9 17  1  0  0  0  0
 10 22  1  0  0  0  0
 11 23  2  0  0  0  0
 12 24  1  0  0  0  0
 12 27  2  0  0  0  0
 13 27  1  0  0  0  0
 14  1  1  1  0  0  0
 14 15  1  0  0  0  0
 15 16  1  0  0  0  0
 15 10  1  1  0  0  0
 17 18  2  0  0  0  0
 17 21  1  0  0  0  0
 18 19  1  0  0  0  0
 18 20  1  0  0  0  0
 22 23  1  0  0  0  0
 23 24  1  0  0  0  0
 24 26  2  0  0  0  0
M  END
