
 OpenBabel10141417493D

 27 29  0  0  1  0  0  0  0  0999 V2000
   -1.4795    6.5567   -3.5379 N   0  0  0  0  0  0  0  0  0  0  0  0
   -2.9167    6.6219   -3.3398 C   0  0  1  0  0  0  0  0  0  0  0  0
   -0.5664    7.3002   -2.8391 C   0  0  0  0  0  0  0  0  0  0  0  0
   -1.5052    5.6414   -4.5338 C   0  0  0  0  0  0  0  0  0  0  0  0
   -3.0464    5.4392   -4.3428 C   0  0  1  0  0  0  0  0  0  0  0  0
   -3.2580    6.2729   -1.6033 S   0  0  0  0  0  0  0  0  0  0  0  0
   -0.9551    7.8875   -1.6693 C   0  0  0  0  0  0  0  0  0  0  0  0
    0.8555    7.4727   -3.3556 C   0  0  0  0  0  0  0  0  0  0  0  0
   -0.6051    5.2165   -5.2062 O   0  0  0  0  0  0  0  0  0  0  0  0
   -3.4678    4.1167   -3.8239 N   0  0  0  0  0  0  0  0  0  0  0  0
   -2.3350    7.7327   -1.0378 C   0  0  0  0  0  0  0  0  0  0  0  0
   -0.0757    8.7079   -0.8337 C   0  0  0  0  0  0  0  0  0  0  0  0
    1.7312    8.0887   -2.7630 O   0  0  0  0  0  0  0  0  0  0  0  0
    1.1313    6.9650   -4.5730 O   0  0  0  0  0  0  0  0  0  0  0  0
   -3.6168    3.0199   -4.6527 C   0  0  0  0  0  0  0  0  0  0  0  0
   -0.3304    9.9863   -0.5108 C   0  0  0  0  0  0  0  0  0  0  0  0
   -4.1648    1.7585   -3.9329 C   0  0  2  0  0  0  0  0  0  0  0  0
   -3.4104    3.0931   -5.8610 O   0  0  0  0  0  0  0  0  0  0  0  0
   -3.8791    1.8303   -2.4766 N   0  0  0  0  0  0  0  0  0  0  0  0
   -3.6951    0.4340   -4.5071 C   0  0  0  0  0  0  0  0  0  0  0  0
   -4.5934   -0.6477   -4.5728 C   0  0  0  0  0  0  0  0  0  0  0  0
   -2.3757    0.2322   -4.9439 C   0  0  0  0  0  0  0  0  0  0  0  0
   -4.1943   -1.8854   -5.0859 C   0  0  0  0  0  0  0  0  0  0  0  0
   -1.9780   -1.0046   -5.4601 C   0  0  0  0  0  0  0  0  0  0  0  0
   -2.8876   -2.0520   -5.5275 C   0  0  0  0  0  0  0  0  0  0  0  0
   -2.4551   -3.2399   -6.0377 O   0  0  0  0  0  0  0  0  0  0  0  0
    0.5889   10.8436    0.3013 C   0  0  0  0  0  0  0  0  0  0  0  0
  2  1  1  1  0  0  0
  3  1  1  0  0  0  0
  4  1  1  0  0  0  0
  5  2  1  0  0  0  0
  5  4  1  0  0  0  0
  5 10  1  1  0  0  0
  6  2  1  0  0  0  0
  7  3  2  0  0  0  0
  8  3  1  0  0  0  0
  9  4  2  0  0  0  0
 11  6  1  0  0  0  0
 11  7  1  0  0  0  0
 12  7  1  0  0  0  0
 13  8  2  0  0  0  0
 14  8  1  0  0  0  0
 15 10  1  0  0  0  0
 16 12  2  3  0  0  0
 16 27  1  0  0  0  0
 17 20  1  6  0  0  0
 17 19  1  0  0  0  0
 17 15  1  0  0  0  0
 18 15  2  0  0  0  0
 21 20  1  0  0  0  0
 22 20  2  0  0  0  0
 23 21  2  0  0  0  0
 24 22  1  0  0  0  0
 25 23  1  0  0  0  0
 25 24  2  0  0  0  0
 26 25  1  0  0  0  0
M  END
