1333
 OpenBabel10141417503D

 24 26  0  0  1  0  0  0  0  0999 V2000
   -4.0658    2.4434    7.2471 S   0  0  0  0  0  0  0  0  0  0  0  0
   -0.0564    0.4538    8.3964 O   0  0  0  0  0  0  0  0  0  0  0  0
    0.0952    2.0930    4.3152 O   0  0  0  0  0  0  0  0  0  0  0  0
   -1.1081   -0.2957   10.6167 O   0  0  0  0  0  0  0  0  0  0  0  0
   -2.5279    0.5421   12.1086 O   0  0  0  0  0  0  0  0  0  0  0  0
   -2.0080    1.6546    8.7115 N   0  0  0  0  0  0  0  0  0  0  0  0
   -1.6784    1.4852    5.6161 N   0  0  0  0  0  0  0  0  0  0  0  0
   -2.3544    1.7810    2.4287 N   0  0  0  0  0  0  0  0  0  0  0  0
   -2.3627    2.7228    7.7903 C   0  0  1  0  0  0  0  0  0  0  0  0
   -1.2310    2.2001    6.8500 C   0  0  1  0  0  0  0  0  0  0  0  0
   -0.8769    1.2844    8.0812 C   0  0  0  0  0  0  0  0  0  0  0  0
   -2.7205    1.3596    9.8440 C   0  0  0  0  0  0  0  0  0  0  0  0
   -4.7175    2.6545    8.9256 C   0  0  0  0  0  0  0  0  0  0  0  0
   -3.9959    1.8263    9.9769 C   0  0  0  0  0  0  0  0  0  0  0  0
   -0.9632    1.4776    4.4372 C   0  0  0  0  0  0  0  0  0  0  0  0
   -1.6506    0.7532    3.2236 C   0  0  1  0  0  0  0  0  0  0  0  0
   -4.8802    1.5440   11.1734 C   0  0  0  0  0  0  0  0  0  0  0  0
   -2.1218    0.5158   10.9541 C   0  0  0  0  0  0  0  0  0  0  0  0
   -2.5638   -0.3993    3.6275 C   0  0  0  0  0  0  0  0  0  0  0  0
   -1.8791   -1.5369    4.3717 C   0  0  0  0  0  0  0  0  0  0  0  0
   -3.8830   -0.4572    3.3370 C   0  0  0  0  0  0  0  0  0  0  0  0
   -4.7980   -1.5803    3.7264 C   0  0  0  0  0  0  0  0  0  0  0  0
   -2.7882   -2.6846    4.7141 C   0  0  0  0  0  0  0  0  0  0  0  0
   -4.0979   -2.7039    4.4258 C   0  0  0  0  0  0  0  0  0  0  0  0
  1 13  1  0  0  0  0
  2 11  2  0  0  0  0
  3 15  2  0  0  0  0
  4 18  1  0  0  0  0
  5 18  2  0  0  0  0
  6  9  1  0  0  0  0
  6 11  1  0  0  0  0
  6 12  1  0  0  0  0
  7 15  1  0  0  0  0
  9  1  1  6  0  0  0
  9 10  1  0  0  0  0
 10 11  1  0  0  0  0
 10  7  1  6  0  0  0
 12 14  2  0  0  0  0
 12 18  1  0  0  0  0
 13 14  1  0  0  0  0
 14 17  1  0  0  0  0
 16 19  1  1  0  0  0
 16 15  1  0  0  0  0
 16  8  1  0  0  0  0
 19 20  1  0  0  0  0
 19 21  2  0  0  0  0
 20 23  1  0  0  0  0
 21 22  1  0  0  0  0
 22 24  1  0  0  0  0
 23 24  2  0  0  0  0
M  END
