1332
 OpenBabel10141417493D

 25 27  0  0  1  0  0  0  0  0999 V2000
   -0.9692   -0.1634    4.2637 S   0  0  0  0  0  0  0  0  0  0  0  0
   -6.2692    2.0233   -0.6523 S   0  0  0  0  0  0  0  0  0  0  0  0
   -2.8698   -3.3175    1.4435 O   0  0  0  0  0  0  0  0  0  0  0  0
   -2.7204   -5.1166    3.5765 O   0  0  0  0  0  0  0  0  0  0  0  0
   -0.2592    1.0682    0.5466 O   0  0  0  0  0  0  0  0  0  0  0  0
   -3.3431   -4.6527    5.6650 O   0  0  0  0  0  0  0  0  0  0  0  0
   -0.8497    3.6419    0.9363 O   0  0  0  0  0  0  0  0  0  0  0  0
   -1.6154   -2.5633    3.2911 N   0  0  0  0  0  0  0  0  0  0  0  0
   -2.0193   -0.1660    1.3212 N   0  0  0  0  0  0  0  0  0  0  0  0
   -2.1629    3.3915    0.5310 N   0  0  0  0  0  0  0  0  0  0  0  0
   -4.3088    0.5082    0.0194 N   0  0  0  0  0  0  0  0  0  0  0  0
   -6.2553   -0.6431   -0.5419 N   0  0  0  0  0  0  0  0  0  0  0  0
   -0.6400   -1.5086    3.0882 C   0  0  1  0  0  0  0  0  0  0  0  0
   -1.2071   -1.3708    1.6446 C   0  0  1  0  0  0  0  0  0  0  0  0
   -2.0497   -2.6388    2.0161 C   0  0  0  0  0  0  0  0  0  0  0  0
   -1.9031   -3.1029    4.5038 C   0  0  0  0  0  0  0  0  0  0  0  0
   -0.7319   -1.2098    5.7278 C   0  0  0  0  0  0  0  0  0  0  0  0
   -1.4712   -2.5128    5.6349 C   0  0  0  0  0  0  0  0  0  0  0  0
   -1.4553    0.9799    0.7878 C   0  0  0  0  0  0  0  0  0  0  0  0
   -2.7416   -4.3246    4.6581 C   0  0  0  0  0  0  0  0  0  0  0  0
   -2.4524    2.1211    0.4713 C   0  0  0  0  0  0  0  0  0  0  0  0
   -3.8355    1.8186    0.0783 C   0  0  0  0  0  0  0  0  0  0  0  0
   -4.7896    2.7733   -0.2351 C   0  0  0  0  0  0  0  0  0  0  0  0
   -5.5608    0.4894   -0.3671 C   0  0  0  0  0  0  0  0  0  0  0  0
   -0.6302    5.0472    0.8799 C   0  0  0  0  0  0  0  0  0  0  0  0
  1 17  1  0  0  0  0
  2 23  1  0  0  0  0
  2 24  1  0  0  0  0
  3 15  2  0  0  0  0
  4 20  1  0  0  0  0
  5 19  2  0  0  0  0
  6 20  2  0  0  0  0
  7 10  1  0  0  0  0
  7 25  1  0  0  0  0
  8 13  1  0  0  0  0
  8 15  1  0  0  0  0
  8 16  1  0  0  0  0
  9 19  1  0  0  0  0
 10 21  2  0  0  0  0
 11 22  1  0  0  0  0
 11 24  2  0  0  0  0
 12 24  1  0  0  0  0
 13  1  1  1  0  0  0
 13 14  1  0  0  0  0
 14 15  1  0  0  0  0
 14  9  1  1  0  0  0
 16 18  2  0  0  0  0
 16 20  1  0  0  0  0
 17 18  1  0  0  0  0
 19 21  1  0  0  0  0
 21 22  1  0  0  0  0
 22 23  2  0  0  0  0
M  END
