
 OpenBabel10141417513D

 27 29  0  0  1  0  0  0  0  0999 V2000
    1.9851    2.5816    1.9807 C   0  0  2  0  0  0  0  0  0  0  0  0
    0.7432    2.3050    2.6728 N   0  0  0  0  0  0  0  0  0  0  0  0
   -0.4414    2.8910    2.3790 C   0  0  0  0  0  0  0  0  0  0  0  0
   -0.6178    3.4913    1.1867 C   0  0  0  0  0  0  0  0  0  0  0  0
    0.3442    3.5470    0.0408 C   0  0  0  0  0  0  0  0  0  0  0  0
    1.7711    2.4339    0.1918 S   0  0  0  0  0  0  0  0  0  0  0  0
    2.5617    1.3214    2.7348 C   0  0  1  0  0  0  0  0  0  0  0  0
    1.2647    1.4893    3.5967 C   0  0  0  0  0  0  0  0  0  0  0  0
    2.5890    0.0232    2.0081 N   0  0  0  0  0  0  0  0  0  0  0  0
    2.5934   -1.2077    2.6224 C   0  0  0  0  0  0  0  0  0  0  0  0
    2.6361   -1.3272    3.8456 O   0  0  0  0  0  0  0  0  0  0  0  0
    0.7235    0.9730    4.5599 O   0  0  0  0  0  0  0  0  0  0  0  0
    2.6147   -2.4267    1.7079 C   0  0  0  0  0  0  0  0  0  0  0  0
    2.6861   -2.2267    0.2776 C   0  0  0  0  0  0  0  0  0  0  0  0
    2.1877   -3.0674   -0.6961 C   0  0  0  0  0  0  0  0  0  0  0  0
    2.4643   -2.3876   -2.2479 S   0  0  0  0  0  0  0  0  0  0  0  0
    3.2296   -1.0401   -1.5162 C   0  0  0  0  0  0  0  0  0  0  0  0
    3.2916   -1.0784   -0.2091 N   0  0  0  0  0  0  0  0  0  0  0  0
    2.6157   -3.6714    2.2492 C   0  0  0  0  0  0  0  0  0  0  0  0
   -1.6302    2.8580    3.2925 C   0  0  0  0  0  0  0  0  0  0  0  0
   -2.5752    3.6263    3.1590 O   0  0  0  0  0  0  0  0  0  0  0  0
   -1.6337    1.9125    4.2482 O   0  0  0  0  0  0  0  0  0  0  0  0
    3.7089   -0.0187   -2.2369 N   0  0  0  0  0  0  0  0  0  0  0  0
    2.5593   -4.1316    3.6871 C   0  0  0  0  0  0  0  0  0  0  0  0
    3.9355   -4.3005    4.3117 C   0  0  0  0  0  0  0  0  0  0  0  0
    4.3925   -5.3819    4.6571 O   0  0  0  0  0  0  0  0  0  0  0  0
    4.6259   -3.1472    4.4570 O   0  0  0  0  0  0  0  0  0  0  0  0
  1  2  1  1  0  0  0
  1  6  1  0  0  0  0
  1  7  1  0  0  0  0
  2  3  1  0  0  0  0
  2  8  1  0  0  0  0
  3  4  2  0  0  0  0
  3 20  1  0  0  0  0
  4  5  1  0  0  0  0
  5  6  1  0  0  0  0
  7  8  1  0  0  0  0
  7  9  1  6  0  0  0
  8 12  2  0  0  0  0
  9 10  1  0  0  0  0
 10 11  2  0  0  0  0
 10 13  1  0  0  0  0
 13 14  1  0  0  0  0
 13 19  2  0  0  0  0
 14 15  2  0  0  0  0
 14 18  1  0  0  0  0
 15 16  1  0  0  0  0
 16 17  1  0  0  0  0
 17 18  2  0  0  0  0
 17 23  1  0  0  0  0
 19 24  1  0  0  0  0
 20 21  2  0  0  0  0
 20 22  1  0  0  0  0
 24 25  1  0  0  0  0
 25 26  2  0  0  0  0
 25 27  1  0  0  0  0
M  END
