
 OpenBabel10141417503D

 43 47  0  0  0  0  0  0  0  0999 V2000
   -8.1155   11.6652   -7.5592 P   0  0  0  0  0  0  0  0  0  0  0  0
   -8.8368   10.8011   -8.6948 O   0  0  0  0  0  0  0  0  0  0  0  0
   -9.4189   12.3746   -6.9522 O   0  0  0  0  0  0  0  0  0  0  0  0
   -7.3026   12.7300   -8.2215 O   0  0  0  0  0  0  0  0  0  0  0  0
   -7.5556   10.6509   -6.4193 N   0  0  0  0  0  0  0  0  0  0  0  0
   -6.3214   10.1086   -6.5868 C   0  0  0  0  0  0  0  0  0  0  0  0
   -3.9308    9.6604   -7.1504 N   0  0  0  0  0  0  0  0  0  0  0  0
   -4.9505   10.9644   -7.2128 S   0  0  0  0  0  0  0  0  0  0  0  0
   -5.9539    8.8882   -6.2334 N   0  0  0  0  0  0  0  0  0  0  0  0
   -4.6213    8.6192   -6.6657 C   0  0  0  0  0  0  0  0  0  0  0  0
   -4.0489    7.2460   -6.6738 C   0  0  0  0  0  0  0  0  0  0  0  0
   -2.7788    6.8882   -6.6658 N   0  0  0  0  0  0  0  0  0  0  0  0
   -1.8601    7.9277   -6.4708 O   0  0  0  0  0  0  0  0  0  0  0  0
   -0.6068    7.7095   -7.1475 C   0  0  0  0  0  0  0  0  0  0  0  0
   -0.1957    6.2890   -7.5286 C   0  0  0  0  0  0  0  0  0  0  0  0
   -5.0250    6.0580   -6.7776 C   0  0  0  0  0  0  0  0  0  0  0  0
   -4.5811    4.8955   -6.1597 N   0  0  0  0  0  0  0  0  0  0  0  0
   -6.0499    6.1717   -7.4215 O   0  0  0  0  0  0  0  0  0  0  0  0
   -5.2424    3.5482   -6.2985 C   0  0  2  0  0  0  0  0  0  0  0  0
   -6.7858    3.4675   -6.5688 C   0  0  0  0  0  0  0  0  0  0  0  0
   -7.0096    3.3736   -5.2488 N   0  0  0  0  0  0  0  0  0  0  0  0
   -5.6928    2.8211   -5.0012 C   0  0  2  0  0  0  0  0  0  0  0  0
   -7.3771    3.4338   -7.6127 O   0  0  0  0  0  0  0  0  0  0  0  0
   -4.9963    3.4818   -3.5064 S   0  0  0  0  0  0  0  0  0  0  0  0
   -8.0645    2.9600   -4.4688 C   0  0  0  0  0  0  0  0  0  0  0  0
   -7.8442    3.0459   -3.1201 C   0  0  0  0  0  0  0  0  0  0  0  0
   -6.5482    3.6528   -2.6219 C   0  0  0  0  0  0  0  0  0  0  0  0
   -9.4338    2.4719   -5.1257 C   0  0  0  0  0  0  0  0  0  0  0  0
   -9.7420    3.0249   -6.2116 O   0  0  0  0  0  0  0  0  0  0  0  0
  -10.0452    1.5540   -4.5051 O   0  5  0  0  0  0  0  0  0  0  0  0
   -9.0711    2.6454   -1.8873 S   0  0  0  0  0  0  0  0  0  0  0  0
   -8.2952    2.9510   -0.3313 C   0  0  0  0  0  0  0  0  0  0  0  0
   -7.3658    2.8749    1.9192 C   0  0  0  0  0  0  0  0  0  0  0  0
   -8.6296    2.0383    1.0902 S   0  0  0  0  0  0  0  0  0  0  0  0
   -7.4108    3.9103   -0.1427 N   0  0  0  0  0  0  0  0  0  0  0  0
   -6.7440    3.7513    1.0534 C   0  0  0  0  0  0  0  0  0  0  0  0
   -5.5078    4.4977    1.3029 C   0  0  0  0  0  0  0  0  0  0  0  0
   -4.8900    4.5298    2.5495 C   0  0  0  0  0  0  0  0  0  0  0  0
   -4.8965    5.2089    0.2618 C   0  0  0  0  0  0  0  0  0  0  0  0
   -3.7513    5.9633    0.4913 C   0  0  0  0  0  0  0  0  0  0  0  0
   -3.2077    6.0117    1.7255 N   0  3  0  0  0  0  0  0  0  0  0  0
   -3.7467    5.3015    2.7403 C   0  0  0  0  0  0  0  0  0  0  0  0
   -2.0511    6.8872    1.9763 C   0  0  0  0  0  0  0  0  0  0  0  0
  1  2  1  0  0  0  0
  1  3  1  0  0  0  0
  1  4  2  0  0  0  0
  1  5  1  0  0  0  0
  5  6  1  0  0  0  0
  6  9  2  0  0  0  0
  7  8  1  0  0  0  0
  7 10  2  0  0  0  0
  8  6  1  0  0  0  0
  9 10  1  0  0  0  0
 10 11  1  0  0  0  0
 11 16  1  0  0  0  0
 11 12  2  0  0  0  0
 12 13  1  0  0  0  0
 13 14  1  0  0  0  0
 14 15  1  0  0  0  0
 16 17  1  0  0  0  0
 16 18  2  0  0  0  0
 19 20  1  0  0  0  0
 19 17  1  1  0  0  0
 20 21  1  0  0  0  0
 20 23  2  0  0  0  0
 21 25  1  0  0  0  0
 22 19  1  0  0  0  0
 22 21  1  1  0  0  0
 24 22  1  0  0  0  0
 24 27  1  0  0  0  0
 25 26  2  0  0  0  0
 25 28  1  0  0  0  0
 26 27  1  0  0  0  0
 26 31  1  0  0  0  0
 28 29  2  0  0  0  0
 28 30  1  0  0  0  0
 31 32  1  0  0  0  0
 32 35  2  0  0  0  0
 33 34  1  0  0  0  0
 33 36  2  0  0  0  0
 34 32  1  0  0  0  0
 35 36  1  0  0  0  0
 36 37  1  0  0  0  0
 37 39  2  0  0  0  0
 38 37  1  0  0  0  0
 38 42  2  0  0  0  0
 39 40  1  0  0  0  0
 40 41  2  0  0  0  0
 41 42  1  0  0  0  0
 41 43  1  0  0  0  0
M  CHG  2  30  -1  41   1
M  END
