
 OpenBabel10141417513D

 29 31  0  0  1  0  0  0  0  0999 V2000
    0.2291   -0.7019   -0.1633 C   0  0  2  0  0  0  0  0  0  0  0  0
    0.2017    0.6494    0.3765 N   0  0  0  0  0  0  0  0  0  0  0  0
   -0.8777    1.4594    0.3428 C   0  0  0  0  0  0  0  0  0  0  0  0
   -2.1059    0.8833    0.1638 C   0  0  0  0  0  0  0  0  0  0  0  0
   -2.3619   -0.6249    0.1821 C   0  0  0  0  0  0  0  0  0  0  0  0
   -0.9710   -1.6285    0.8099 S   0  0  0  0  0  0  0  0  0  0  0  0
    1.7420   -0.7489    0.2124 C   0  0  1  0  0  0  0  0  0  0  0  0
    1.5181    0.7020    0.6776 C   0  0  0  0  0  0  0  0  0  0  0  0
    2.2451   -1.6298    1.2791 N   0  0  0  0  0  0  0  0  0  0  0  0
    2.6169   -2.9278    1.0295 C   0  0  0  0  0  0  0  0  0  0  0  0
    2.5427   -3.4274   -0.0849 O   0  0  0  0  0  0  0  0  0  0  0  0
    2.1552    1.5563    1.2214 O   0  0  0  0  0  0  0  0  0  0  0  0
    3.1892   -3.7111    2.2214 C   0  0  0  0  0  0  0  0  0  0  0  0
   -3.3915    1.6345   -0.0976 C   0  0  0  0  0  0  0  0  0  0  0  0
   -0.7057    2.9613    0.4440 C   0  0  0  0  0  0  0  0  0  0  0  0
   -1.5061    3.7734    0.0118 O   0  0  0  0  0  0  0  0  0  0  0  0
    0.4141    3.3927    1.0534 O   0  0  0  0  0  0  0  0  0  0  0  0
    4.1951   -4.6860    1.8669 C   0  0  0  0  0  0  0  0  0  0  0  0
    4.3378   -5.7999    2.6537 O   0  0  0  0  0  0  0  0  0  0  0  0
    5.2240   -6.6211    2.0353 C   0  0  0  0  0  0  0  0  0  0  0  0
    5.7039   -6.0367    0.8888 C   0  0  0  0  0  0  0  0  0  0  0  0
    5.0626   -4.7803    0.7923 C   0  0  0  0  0  0  0  0  0  0  0  0
    2.8088   -3.5807    3.4624 N   0  0  0  0  0  0  0  0  0  0  0  0
   -3.7164    1.4940   -1.4881 O   0  0  0  0  0  0  0  0  0  0  0  0
   -4.8536    0.8190   -1.7473 C   0  0  0  0  0  0  0  0  0  0  0  0
   -5.2949    1.1608   -2.9786 N   0  0  0  0  0  0  0  0  0  0  0  0
   -5.4473    0.0797   -0.9898 O   0  0  0  0  0  0  0  0  0  0  0  0
    1.8026   -2.6250    3.6526 O   0  0  0  0  0  0  0  0  0  0  0  0
    1.0549   -2.9815    4.8146 C   0  0  0  0  0  0  0  0  0  0  0  0
  1  2  1  1  0  0  0
  1  6  1  0  0  0  0
  1  7  1  0  0  0  0
  2  3  1  0  0  0  0
  2  8  1  0  0  0  0
  3  4  2  0  0  0  0
  3 15  1  0  0  0  0
  4  5  1  0  0  0  0
  4 14  1  0  0  0  0
  5  6  1  0  0  0  0
  7  8  1  0  0  0  0
  7  9  1  1  0  0  0
  8 12  2  0  0  0  0
  9 10  1  0  0  0  0
 10 11  2  0  0  0  0
 10 13  1  0  0  0  0
 13 18  1  0  0  0  0
 13 23  2  0  0  0  0
 14 24  1  0  0  0  0
 15 16  2  0  0  0  0
 15 17  1  0  0  0  0
 18 19  1  0  0  0  0
 18 22  2  0  0  0  0
 19 20  1  0  0  0  0
 20 21  2  0  0  0  0
 21 22  1  0  0  0  0
 23 28  1  0  0  0  0
 24 25  1  0  0  0  0
 25 26  1  0  0  0  0
 25 27  2  0  0  0  0
 28 29  1  0  0  0  0
M  END
