482
 OpenBabel10141417483D

 26 28  0  0  0  0  0  0  0  0999 V2000
    0.0107   -0.7655    0.9033 S   0  0  0  0  0  0  0  0  0  0  0  0
    8.8116   -2.0872   -0.9814 F   0  0  0  0  0  0  0  0  0  0  0  0
    9.5334   -0.5301   -2.3256 F   0  0  0  0  0  0  0  0  0  0  0  0
    9.9702   -0.4121   -0.1947 F   0  0  0  0  0  0  0  0  0  0  0  0
   -0.8098   -0.8913   -0.2732 O   0  0  0  0  0  0  0  0  0  0  0  0
    0.0074   -1.7426    1.9710 O   0  0  0  0  0  0  0  0  0  0  0  0
    5.6752    0.5304   -0.5137 N   0  0  0  0  0  0  0  0  0  0  0  0
    6.5982   -0.4693   -0.4493 N   0  0  0  0  0  0  0  0  0  0  0  0
   -0.4372    0.6816    1.6363 N   0  0  0  0  0  0  0  0  0  0  0  0
    6.2724    1.7645   -0.8042 C   0  0  0  0  0  0  0  0  0  0  0  0
    4.3122    0.1833   -0.2765 C   0  0  0  0  0  0  0  0  0  0  0  0
    5.6884    3.1209   -0.7212 C   0  0  0  0  0  0  0  0  0  0  0  0
    7.5977    1.4522   -1.0831 C   0  0  0  0  0  0  0  0  0  0  0  0
    7.7472    0.0621   -0.8873 C   0  0  0  0  0  0  0  0  0  0  0  0
    3.2558    0.9097   -0.8370 C   0  0  0  0  0  0  0  0  0  0  0  0
    4.0328   -0.9245    0.5464 C   0  0  0  0  0  0  0  0  0  0  0  0
    1.6770   -0.4443    0.4055 C   0  0  0  0  0  0  0  0  0  0  0  0
    6.1416    4.1309   -1.5868 C   0  0  0  0  0  0  0  0  0  0  0  0
    4.7575    3.4839    0.2615 C   0  0  0  0  0  0  0  0  0  0  0  0
    1.9361    0.5990   -0.4909 C   0  0  0  0  0  0  0  0  0  0  0  0
    2.7174   -1.2280    0.9030 C   0  0  0  0  0  0  0  0  0  0  0  0
    4.7456    5.7969   -0.4985 C   0  0  0  0  0  0  0  0  0  0  0  0
    5.6821    5.4511   -1.4752 C   0  0  0  0  0  0  0  0  0  0  0  0
    4.2699    4.7965    0.3532 C   0  0  0  0  0  0  0  0  0  0  0  0
    9.0020   -0.7457   -1.0902 C   0  0  0  0  0  0  0  0  0  0  0  0
    4.2383    7.2061   -0.3934 C   0  0  0  0  0  0  0  0  0  0  0  0
  1  5  2  0  0  0  0
  1  6  2  0  0  0  0
  1  9  1  0  0  0  0
  1 17  1  0  0  0  0
  2 25  1  0  0  0  0
  3 25  1  0  0  0  0
  4 25  1  0  0  0  0
  7  8  1  0  0  0  0
  7 10  1  0  0  0  0
  7 11  1  0  0  0  0
  8 14  2  0  0  0  0
 10 12  1  0  0  0  0
 10 13  2  0  0  0  0
 11 15  2  0  0  0  0
 11 16  1  0  0  0  0
 12 18  2  0  0  0  0
 12 19  1  0  0  0  0
 13 14  1  0  0  0  0
 14 25  1  0  0  0  0
 15 20  1  0  0  0  0
 16 21  2  0  0  0  0
 17 20  2  0  0  0  0
 17 21  1  0  0  0  0
 18 23  1  0  0  0  0
 19 24  2  0  0  0  0
 22 23  2  0  0  0  0
 22 24  1  0  0  0  0
 22 26  1  0  0  0  0
M  END
