567
 OpenBabel10141417483D

 24 26  0  0  1  0  0  0  0  0999 V2000
   -3.9708    0.5914    9.6860 S   0  0  0  0  0  0  0  0  0  0  0  0
   -0.4995   -1.0129    7.0224 O   0  0  0  0  0  0  0  0  0  0  0  0
   -4.5318    2.2801    6.2877 O   0  0  0  0  0  0  0  0  0  0  0  0
    0.3031   -2.4490    8.9271 O   0  0  0  0  0  0  0  0  0  0  0  0
    0.2474   -2.5262   11.1437 O   0  0  0  0  0  0  0  0  0  0  0  0
   -1.5528   -0.2714    8.9570 N   0  0  0  0  0  0  0  0  0  0  0  0
   -3.5003    0.2671    6.6172 N   0  0  0  0  0  0  0  0  0  0  0  0
   -5.4896   -1.2058    5.7287 N   0  0  0  0  0  0  0  0  0  0  0  0
   -2.3802    0.9256    8.9042 C   0  0  1  0  0  0  0  0  0  0  0  0
   -2.3178    0.8060    7.3446 C   0  0  1  0  0  0  0  0  0  0  0  0
   -1.2289   -0.2699    7.6516 C   0  0  0  0  0  0  0  0  0  0  0  0
   -1.3238   -1.0285   10.0760 C   0  0  0  0  0  0  0  0  0  0  0  0
   -3.2427    0.1450   11.2770 C   0  0  0  0  0  0  0  0  0  0  0  0
   -2.1127   -0.8608   11.1747 C   0  0  0  0  0  0  0  0  0  0  0  0
   -4.5349    1.0593    6.1518 C   0  0  0  0  0  0  0  0  0  0  0  0
   -2.0001   -1.7010   12.4336 C   0  0  0  0  0  0  0  0  0  0  0  0
   -0.2092   -2.0602   10.1081 C   0  0  0  0  0  0  0  0  0  0  0  0
   -5.7071    0.2578    5.5113 C   0  0  1  0  0  0  0  0  0  0  0  0
   -5.9611    0.5889    4.0461 C   0  0  0  0  0  0  0  0  0  0  0  0
   -5.3182   -0.0988    3.0030 C   0  0  0  0  0  0  0  0  0  0  0  0
   -6.8947    1.5834    3.6974 C   0  0  0  0  0  0  0  0  0  0  0  0
   -5.6287    0.1666    1.6637 C   0  0  0  0  0  0  0  0  0  0  0  0
   -7.1976    1.8543    2.3569 C   0  0  0  0  0  0  0  0  0  0  0  0
   -6.5713    1.1391    1.3403 C   0  0  0  0  0  0  0  0  0  0  0  0
  1 13  1  0  0  0  0
  2 11  2  0  0  0  0
  3 15  2  0  0  0  0
  4 17  1  0  0  0  0
  5 17  2  0  0  0  0
  6  9  1  0  0  0  0
  6 11  1  0  0  0  0
  6 12  1  0  0  0  0
  7 15  1  0  0  0  0
  9  1  1  1  0  0  0
  9 10  1  0  0  0  0
 10 11  1  0  0  0  0
 10  7  1  1  0  0  0
 12 14  2  0  0  0  0
 12 17  1  0  0  0  0
 13 14  1  0  0  0  0
 14 16  1  0  0  0  0
 18 19  1  6  0  0  0
 18 15  1  0  0  0  0
 18  8  1  0  0  0  0
 19 20  2  0  0  0  0
 19 21  1  0  0  0  0
 20 22  1  0  0  0  0
 21 23  2  0  0  0  0
 22 24  2  0  0  0  0
 23 24  1  0  0  0  0
M  END
