
 OpenBabel10141417533D

 28 31  0  0  0  0  0  0  0  0999 V2000
   -5.9142   -1.7393    7.9575 C   0  0  0  0  0  0  0  0  0  0  0  0
   -4.9584   -0.8519    7.4892 C   0  0  0  0  0  0  0  0  0  0  0  0
   -7.2160   -1.6151    7.4966 C   0  0  0  0  0  0  0  0  0  0  0  0
    4.0178    4.1549    2.3113 C   0  0  0  0  0  0  0  0  0  0  0  0
    2.6806    4.2951    2.7835 C   0  0  0  0  0  0  0  0  0  0  0  0
   -5.3336    0.1837    6.6332 C   0  0  0  0  0  0  0  0  0  0  0  0
   -7.5207   -0.6424    6.5382 C   0  0  0  0  0  0  0  0  0  0  0  0
    4.0689    3.9863    0.9459 C   0  0  0  0  0  0  0  0  0  0  0  0
    0.2507    4.1839    1.8741 C   0  0  0  0  0  0  0  0  0  0  0  0
   -6.9891    1.3623    5.1765 C   0  0  0  0  0  0  0  0  0  0  0  0
   -5.8619    1.1120    2.9003 C   0  0  0  0  0  0  0  0  0  0  0  0
   -5.9068    1.8812    4.2116 C   0  0  0  0  0  0  0  0  0  0  0  0
    1.7519    4.2007    1.7649 C   0  0  0  0  0  0  0  0  0  0  0  0
   -0.3081    2.7768    2.0321 C   0  0  0  0  0  0  0  0  0  0  0  0
   -2.5984    3.4597    2.1461 C   0  0  2  0  0  0  0  0  0  0  0  0
   -5.0975    2.9545    4.4647 C   0  0  0  0  0  0  0  0  0  0  0  0
   -2.9369    3.9657    3.5806 C   0  0  0  0  0  0  0  0  0  0  0  0
   -4.0496    2.8866    2.1773 C   0  0  2  0  0  0  0  0  0  0  0  0
   -5.2133    3.7845    5.8224 C   0  0  0  0  0  0  0  0  0  0  0  0
   -1.5477    2.4303    2.1190 N   0  0  0  0  0  0  0  0  0  0  0  0
   -6.5799    0.2398    6.1045 N   0  3  0  0  0  0  0  0  0  0  0  0
   -4.1248    3.3144    3.5559 N   0  0  0  0  0  0  0  0  0  0  0  0
    0.5625    1.7500    2.0566 O   0  0  0  0  0  0  0  0  0  0  0  0
   -2.2724    4.5627    4.4122 O   0  0  0  0  0  0  0  0  0  0  0  0
   -5.8508    3.1839    6.7384 O   0  0  0  0  0  0  0  0  0  0  0  0
   -4.7329    4.9424    5.8026 O   0  5  0  0  0  0  0  0  0  0  0  0
    2.5119    3.9993    0.2400 S   0  0  0  0  0  0  0  0  0  0  0  0
   -4.2583    1.0935    2.0836 S   0  0  0  0  0  0  0  0  0  0  0  0
  2  1  2  0  0  0  0
  3  1  1  0  0  0  0
  5  4  1  0  0  0  0
  6  2  1  0  0  0  0
  7  3  2  0  0  0  0
  8  4  2  0  0  0  0
 12 11  1  0  0  0  0
 12 10  1  0  0  0  0
 13  5  2  0  0  0  0
 13  9  1  0  0  0  0
 14  9  1  0  0  0  0
 14 23  1  0  0  0  0
 15 20  1  1  0  0  0
 16 12  2  0  0  0  0
 17 15  1  0  0  0  0
 18 15  1  0  0  0  0
 18 22  1  1  0  0  0
 19 16  1  0  0  0  0
 20 14  2  3  0  0  0
 21  6  2  0  0  0  0
 21  7  1  0  0  0  0
 21 10  1  0  0  0  0
 22 16  1  0  0  0  0
 22 17  1  0  0  0  0
 24 17  2  0  0  0  0
 25 19  2  0  0  0  0
 26 19  1  0  0  0  0
 27  8  1  0  0  0  0
 27 13  1  0  0  0  0
 28 11  1  0  0  0  0
 28 18  1  0  0  0  0
M  CHG  2  21   1  26  -1
M  END
