689
 OpenBabel10141417513D

 28 30  0  0  1  0  0  0  0  0999 V2000
   -3.7141    0.8552    8.1451 S   0  0  0  0  0  0  0  0  0  0  0  0
   -0.3490   -0.6588    5.7758 O   0  0  0  0  0  0  0  0  0  0  0  0
   -2.8811   -1.3585   12.0350 O   0  0  0  0  0  0  0  0  0  0  0  0
    0.6164   -2.0736    7.6116 O   0  0  0  0  0  0  0  0  0  0  0  0
   -1.2952    2.7913    3.8815 O   0  0  0  0  0  0  0  0  0  0  0  0
    0.2713   -2.5722    9.7472 O   0  0  0  0  0  0  0  0  0  0  0  0
   -4.9019   -2.4183   11.7429 O   0  0  0  0  0  0  0  0  0  0  0  0
   -1.2115    0.0589    7.8095 N   0  0  0  0  0  0  0  0  0  0  0  0
   -2.6236    1.6701    5.3679 N   0  0  0  0  0  0  0  0  0  0  0  0
   -4.8286    2.4058    3.8824 N   0  0  0  0  0  0  0  0  0  0  0  0
   -1.9870    1.2821    7.8735 C   0  0  1  0  0  0  0  0  0  0  0  0
   -1.5662    1.5481    6.4012 C   0  0  1  0  0  0  0  0  0  0  0  0
   -0.8761    0.1584    6.5077 C   0  0  0  0  0  0  0  0  0  0  0  0
   -1.2047   -0.9235    8.7665 C   0  0  0  0  0  0  0  0  0  0  0  0
   -2.1919   -0.9430    9.7096 C   0  0  0  0  0  0  0  0  0  0  0  0
   -3.3833    0.0024    9.7012 C   0  0  0  0  0  0  0  0  0  0  0  0
   -2.3173   -1.9606   10.8446 C   0  0  0  0  0  0  0  0  0  0  0  0
   -2.3756    2.2684    4.1493 C   0  0  0  0  0  0  0  0  0  0  0  0
   -0.0735   -1.9391    8.7603 C   0  0  0  0  0  0  0  0  0  0  0  0
   -3.5534    2.2116    3.1436 C   0  0  1  0  0  0  0  0  0  0  0  0
   -3.5160    0.9279    2.3318 C   0  0  0  0  0  0  0  0  0  0  0  0
   -4.5806    0.0133    2.3223 C   0  0  0  0  0  0  0  0  0  0  0  0
   -2.3839    0.6386    1.5475 C   0  0  0  0  0  0  0  0  0  0  0  0
   -4.1196   -1.7711   12.4240 C   0  0  0  0  0  0  0  0  0  0  0  0
   -4.5251   -1.1423    1.5436 C   0  0  0  0  0  0  0  0  0  0  0  0
   -2.3245   -0.5240    0.7774 C   0  0  0  0  0  0  0  0  0  0  0  0
   -3.3994   -1.4088    0.7694 C   0  0  0  0  0  0  0  0  0  0  0  0
   -4.3944   -1.3413   13.8356 C   0  0  0  0  0  0  0  0  0  0  0  0
  1 16  1  0  0  0  0
  2 13  2  0  0  0  0
  3 17  1  0  0  0  0
  3 24  1  0  0  0  0
  4 19  1  0  0  0  0
  5 18  2  0  0  0  0
  6 19  2  0  0  0  0
  7 24  2  0  0  0  0
  8 11  1  0  0  0  0
  8 13  1  0  0  0  0
  8 14  1  0  0  0  0
  9 18  1  0  0  0  0
 11  1  1  6  0  0  0
 11 12  1  0  0  0  0
 12 13  1  0  0  0  0
 12  9  1  6  0  0  0
 14 15  2  0  0  0  0
 14 19  1  0  0  0  0
 15 16  1  0  0  0  0
 15 17  1  0  0  0  0
 20 21  1  1  0  0  0
 20 18  1  0  0  0  0
 20 10  1  0  0  0  0
 21 22  2  0  0  0  0
 21 23  1  0  0  0  0
 22 25  1  0  0  0  0
 23 26  2  0  0  0  0
 24 28  1  0  0  0  0
 25 27  2  0  0  0  0
 26 27  1  0  0  0  0
M  END
