1034
 OpenBabel10141417493D

 16 16  0  0  1  0  0  0  0  0999 V2000
    1.0084   -0.8558    1.4160 O   0  0  0  0  0  0  0  0  0  0  0  0
    3.2326   -0.6778   -0.2727 O   0  0  0  0  0  0  0  0  0  0  0  0
    1.8905    2.6226    1.0489 O   0  0  0  0  0  0  0  0  0  0  0  0
    2.9901    0.9279    2.0876 N   0  0  0  0  0  0  0  0  0  0  0  0
    0.8870   -0.5049    0.0239 C   0  0  1  0  0  0  0  0  0  0  0  0
    0.8090    0.5374    1.1097 C   0  0  2  0  0  0  0  0  0  0  0  0
    2.1168   -0.7492   -0.7762 C   0  0  0  0  0  0  0  0  0  0  0  0
    1.8691   -1.1169   -2.2232 C   0  0  0  0  0  0  0  0  0  0  0  0
    1.9338    1.4533    1.4054 C   0  0  0  0  0  0  0  0  0  0  0  0
    3.1774   -1.3697   -2.9656 C   0  0  0  0  0  0  0  0  0  0  0  0
    2.9414   -1.7581   -4.3968 C   0  0  0  0  0  0  0  0  0  0  0  0
    2.8022   -3.0309   -4.8040 C   0  0  0  0  0  0  0  0  0  0  0  0
    2.6206   -3.4426   -6.2358 C   0  0  0  0  0  0  0  0  0  0  0  0
    1.1708   -3.5148   -6.6111 C   0  0  0  0  0  0  0  0  0  0  0  0
    0.5560   -4.6272   -7.0449 C   0  0  0  0  0  0  0  0  0  0  0  0
   -0.8793   -4.6889   -7.4495 C   0  0  0  0  0  0  0  0  0  0  0  0
  1  5  1  0  0  0  0
  1  6  1  0  0  0  0
  2  7  2  0  0  0  0
  3  9  2  0  0  0  0
  4  9  1  0  0  0  0
  5  6  1  0  0  0  0
  5  7  1  6  0  0  0
  6  9  1  6  0  0  0
  7  8  1  0  0  0  0
  8 10  1  0  0  0  0
 10 11  1  0  0  0  0
 11 12  2  3  0  0  0
 12 13  1  0  0  0  0
 13 14  1  0  0  0  0
 14 15  2  3  0  0  0
 15 16  1  0  0  0  0
M  END
