
 OpenBabel10141417483D

 28 31  0  0  1  0  0  0  0  0999 V2000
    0.5534   -1.0529    1.4328 C   0  0  0  0  0  0  0  0  0  0  0  0
    1.0967    0.3953    1.5993 C   0  0  2  0  0  0  0  0  0  0  0  0
    1.3337    0.9124    0.1242 C   0  0  0  0  0  0  0  0  0  0  0  0
    2.4654    0.2533   -0.6764 C   0  0  0  0  0  0  0  0  0  0  0  0
    2.5517    0.8145   -2.0852 C   0  0  0  0  0  0  0  0  0  0  0  0
    1.9557    0.3598   -3.0400 O   0  0  0  0  0  0  0  0  0  0  0  0
    3.3540    1.9013   -2.1777 O   0  0  0  0  0  0  0  0  0  0  0  0
    2.3990    0.7619    2.6389 C   0  0  1  0  0  0  0  0  0  0  0  0
    3.0639    0.7174    4.5732 C   0  0  0  0  0  0  0  0  0  0  0  0
    4.5422    0.5010    4.6910 C   0  0  0  0  0  0  0  0  0  0  0  0
    4.2247    0.6736    3.3134 C   0  0  2  0  0  0  0  0  0  0  0  0
    2.6567   -0.3978    3.3213 C   0  0  2  0  0  0  0  0  0  0  0  0
    1.0619    0.2285    4.1225 C   0  0  0  0  0  0  0  0  0  0  0  0
    1.0038    2.0429    4.0822 C   0  0  0  0  0  0  0  0  0  0  0  0
    2.4094    3.0631    3.9064 C   0  0  1  0  0  0  0  0  0  0  0  0
    3.8946    2.4897    3.2363 C   0  0  1  0  0  0  0  0  0  0  0  0
    4.2465    3.0854    1.8565 C   0  0  1  0  0  0  0  0  0  0  0  0
    3.9199    4.5649    1.7002 C   0  0  0  0  0  0  0  0  0  0  0  0
    2.4638    4.8642    2.0758 C   0  0  1  0  0  0  0  0  0  0  0  0
    2.1640    4.5984    3.5778 C   0  0  2  0  0  0  0  0  0  0  0  0
    0.7412    5.1091    3.9689 C   0  0  0  0  0  0  0  0  0  0  0  0
   -0.0866    5.5945    2.7805 C   0  0  0  0  0  0  0  0  0  0  0  0
    0.6519    6.6731    1.9891 C   0  0  2  0  0  0  0  0  0  0  0  0
    2.1014    6.3015    1.6611 C   0  0  0  0  0  0  0  0  0  0  0  0
    0.6673    7.8898    2.7363 O   0  0  0  0  0  0  0  0  0  0  0  0
    3.1509    5.4226    4.4809 C   0  0  0  0  0  0  0  0  0  0  0  0
    5.6369    2.8906    1.6011 O   0  0  0  0  0  0  0  0  0  0  0  0
    2.9597   -1.8271    3.0055 C   0  0  0  0  0  0  0  0  0  0  0  0
  2  3  1  6  0  0  0
  2  1  1  0  0  0  0
  3  4  1  0  0  0  0
  4  5  1  0  0  0  0
  5  6  2  0  0  0  0
  5  7  1  0  0  0  0
  8  2  1  0  0  0  0
  8  9  1  1  0  0  0
  8 12  1  0  0  0  0
  9 10  1  0  0  0  0
 11 10  1  6  0  0  0
 11 12  1  0  0  0  0
 11 16  1  0  0  0  0
 12 13  1  0  0  0  0
 12 28  1  1  0  0  0
 13 14  1  0  0  0  0
 15 14  1  6  0  0  0
 15 20  1  0  0  0  0
 16 15  1  1  0  0  0
 16 17  1  0  0  0  0
 17 18  1  0  0  0  0
 17 27  1  1  0  0  0
 19 18  1  1  0  0  0
 19 20  1  0  0  0  0
 19 24  1  0  0  0  0
 20 21  1  0  0  0  0
 20 26  1  6  0  0  0
 21 22  1  0  0  0  0
 22 23  1  0  0  0  0
 23 24  1  0  0  0  0
 23 25  1  1  0  0  0
M  END
