856
 OpenBabel10141417493D

 13 13  0  0  1  0  0  0  0  0999 V2000
    4.2356   -5.4133    5.1114 Cl  0  0  0  0  0  0  0  0  0  0  0  0
    5.5895   -1.6857    0.7600 O   0  0  0  0  0  0  0  0  0  0  0  0
    6.6030    0.7519   -0.3371 O   0  0  0  0  0  0  0  0  0  0  0  0
    8.3633    0.5484   -2.5045 O   0  0  0  0  0  0  0  0  0  0  0  0
    6.9598   -0.5393   -0.8601 C   0  0  3  0  0  0  0  0  0  0  0  0
    6.9263   -1.5955    0.2497 C   0  0  0  0  0  0  0  0  0  0  0  0
    8.3604   -0.4292   -1.4657 C   0  0  0  0  0  0  0  0  0  0  0  0
    5.3711   -2.5889    1.7657 C   0  0  0  0  0  0  0  0  0  0  0  0
    6.3148   -3.4750    2.2922 C   0  0  0  0  0  0  0  0  0  0  0  0
    4.0721   -2.5947    2.2813 C   0  0  0  0  0  0  0  0  0  0  0  0
    5.9587   -4.3509    3.3264 C   0  0  0  0  0  0  0  0  0  0  0  0
    3.7139   -3.4667    3.3136 C   0  0  0  0  0  0  0  0  0  0  0  0
    4.6642   -4.3422    3.8344 C   0  0  0  0  0  0  0  0  0  0  0  0
  1 13  1  0  0  0  0
  2  6  1  0  0  0  0
  2  8  1  0  0  0  0
  3  5  1  0  0  0  0
  4  7  1  0  0  0  0
  5  6  1  0  0  0  0
  5  7  1  0  0  0  0
  8  9  2  0  0  0  0
  8 10  1  0  0  0  0
  9 11  1  0  0  0  0
 10 12  2  0  0  0  0
 11 13  2  0  0  0  0
 12 13  1  0  0  0  0
M  END
