608
 OpenBabel10141417523D

 22 23  0  0  1  0  0  0  0  0999 V2000
    1.9899   -2.8456    2.6055 Cl  0  0  0  0  0  0  0  0  0  0  0  0
    9.8326   -2.8523   -3.2047 N   0  0  0  0  0  0  0  0  0  0  0  0
    7.3973    0.6642    0.2202 N   0  0  0  0  0  0  0  0  0  0  0  0
    5.7999    0.0304    4.0869 N   0  0  0  0  0  0  0  0  0  0  0  0
    9.3822    0.5066   -1.2710 C   0  0  0  0  0  0  0  0  0  0  0  0
    9.2870   -1.0201   -1.4903 C   0  0  0  0  0  0  0  0  0  0  0  0
    8.8279    0.9860    0.0889 C   0  0  3  0  0  0  0  0  0  0  0  0
    9.8780   -1.4205   -2.8549 C   0  0  0  0  0  0  0  0  0  0  0  0
    9.0276    2.5066    0.2163 C   0  0  0  0  0  0  0  0  0  0  0  0
   10.4068   -3.1096   -4.5413 C   0  0  0  0  0  0  0  0  0  0  0  0
   10.4082   -3.7848   -2.2174 C   0  0  0  0  0  0  0  0  0  0  0  0
    6.8913    0.3753    1.5083 C   0  0  0  0  0  0  0  0  0  0  0  0
    5.7162   -0.4157    1.6954 C   0  0  0  0  0  0  0  0  0  0  0  0
    9.6778   -2.4158   -5.6881 C   0  0  0  0  0  0  0  0  0  0  0  0
   11.8895   -3.6353   -1.8732 C   0  0  0  0  0  0  0  0  0  0  0  0
    7.4481    0.9819    2.6352 C   0  0  0  0  0  0  0  0  0  0  0  0
    5.2242   -0.5440    3.0278 C   0  0  0  0  0  0  0  0  0  0  0  0
    5.0164   -1.1047    0.6749 C   0  0  0  0  0  0  0  0  0  0  0  0
    6.8866    0.7678    3.8802 C   0  0  0  0  0  0  0  0  0  0  0  0
    4.0930   -1.2985    3.2756 C   0  0  0  0  0  0  0  0  0  0  0  0
    3.8609   -1.8411    0.9467 C   0  0  0  0  0  0  0  0  0  0  0  0
    3.4026   -1.9312    2.2539 C   0  0  0  0  0  0  0  0  0  0  0  0
  1 22  1  0  0  0  0
  2  8  1  0  0  0  0
  2 10  1  0  0  0  0
  2 11  1  0  0  0  0
  3  7  1  0  0  0  0
  3 12  1  0  0  0  0
  4 17  2  0  0  0  0
  4 19  1  0  0  0  0
  5  6  1  0  0  0  0
  5  7  1  0  0  0  0
  6  8  1  0  0  0  0
  7  9  1  0  0  0  0
 10 14  1  0  0  0  0
 11 15  1  0  0  0  0
 12 13  2  0  0  0  0
 12 16  1  0  0  0  0
 13 17  1  0  0  0  0
 13 18  1  0  0  0  0
 16 19  2  0  0  0  0
 17 20  1  0  0  0  0
 18 21  2  0  0  0  0
 20 22  2  0  0  0  0
 21 22  1  0  0  0  0
M  END
