1161
 OpenBabel10141417483D

 18 18  0  0  0  0  0  0  0  0999 V2000
    0.7705    4.9956    0.8790 Cl  0  0  0  0  0  0  0  0  0  0  0  0
    1.0015    2.2247    0.2963 O   0  0  0  0  0  0  0  0  0  0  0  0
    1.1852    0.7894    2.0653 O   0  0  0  0  0  0  0  0  0  0  0  0
   -2.0491    0.2525   -0.8697 N   0  0  0  0  0  0  0  0  0  0  0  0
    4.3167    5.8491    4.3994 N   0  0  0  0  0  0  0  0  0  0  0  0
   -1.2171    1.2010   -0.1011 C   0  0  0  0  0  0  0  0  0  0  0  0
   -3.4696    0.2891   -0.4743 C   0  0  0  0  0  0  0  0  0  0  0  0
   -1.8908    0.3395   -2.3324 C   0  0  0  0  0  0  0  0  0  0  0  0
    0.2783    1.2480   -0.4831 C   0  0  0  0  0  0  0  0  0  0  0  0
   -3.7450   -0.1275    0.9715 C   0  0  0  0  0  0  0  0  0  0  0  0
   -2.2006    1.6772   -3.0030 C   0  0  0  0  0  0  0  0  0  0  0  0
    1.3705    1.8707    1.5455 C   0  0  0  0  0  0  0  0  0  0  0  0
    2.1242    2.9734    2.2118 C   0  0  0  0  0  0  0  0  0  0  0  0
    1.9165    4.3409    1.9993 C   0  0  0  0  0  0  0  0  0  0  0  0
    3.0917    2.5794    3.1544 C   0  0  0  0  0  0  0  0  0  0  0  0
    3.5414    4.8916    3.7380 C   0  0  0  0  0  0  0  0  0  0  0  0
    2.6390    5.2843    2.7479 C   0  0  0  0  0  0  0  0  0  0  0  0
    3.8107    3.5327    3.8882 C   0  0  0  0  0  0  0  0  0  0  0  0
  1 14  1  0  0  0  0
  2  9  1  0  0  0  0
  2 12  1  0  0  0  0
  3 12  2  0  0  0  0
  4  6  1  0  0  0  0
  4  7  1  0  0  0  0
  4  8  1  0  0  0  0
  5 16  1  0  0  0  0
  6  9  1  0  0  0  0
  7 10  1  0  0  0  0
  8 11  1  0  0  0  0
 12 13  1  0  0  0  0
 13 14  2  0  0  0  0
 13 15  1  0  0  0  0
 14 17  1  0  0  0  0
 15 18  2  0  0  0  0
 16 17  2  0  0  0  0
 16 18  1  0  0  0  0
M  END
