
 OpenBabel10141417503D

 21 23  0  0  0  0  0  0  0  0999 V2000
    2.5518    0.5798    0.0011 C   0  0  0  0  0  0  0  0  0  0  0  0
    2.6322   -0.7994    0.1670 C   0  0  0  0  0  0  0  0  0  0  0  0
    0.2174   -0.9553    0.1622 C   0  0  0  0  0  0  0  0  0  0  0  0
    0.1202    0.4479    0.0361 C   0  0  0  0  0  0  0  0  0  0  0  0
    1.4751   -1.5722    0.2451 C   0  0  0  0  0  0  0  0  0  0  0  0
    1.3005    1.1945   -0.0665 C   0  0  0  0  0  0  0  0  0  0  0  0
   -0.9975   -1.8203    0.2498 C   0  0  0  0  0  0  0  0  0  0  0  0
   -1.0849   -3.0671   -0.5722 C   0  0  0  0  0  0  0  0  0  0  0  0
   -1.9888   -1.4390    1.0475 N   0  0  0  0  0  0  0  0  0  0  0  0
   -1.0823    1.1773   -0.0092 N   0  0  0  0  0  0  0  0  0  0  0  0
   -0.5303   -3.0810   -1.8603 C   0  0  0  0  0  0  0  0  0  0  0  0
   -1.6964   -4.2286   -0.0871 C   0  0  0  0  0  0  0  0  0  0  0  0
   -1.9332   -0.2015    1.8470 C   0  0  0  0  0  0  0  0  0  0  0  0
   -3.0179   -2.0915    1.1355 O   0  0  0  0  0  0  0  0  0  0  0  0
   -2.0430    0.9121    0.8327 C   0  0  0  0  0  0  0  0  0  0  0  0
    4.1737   -1.5539    0.2826 Cl  0  0  0  0  0  0  0  0  0  0  0  0
   -0.5886   -4.2361   -2.6454 C   0  0  0  0  0  0  0  0  0  0  0  0
   -1.7735   -5.3754   -0.8825 C   0  0  0  0  0  0  0  0  0  0  0  0
   -1.2164   -5.3805   -2.1590 C   0  0  0  0  0  0  0  0  0  0  0  0
   -4.5003    1.2037    1.1076 C   0  0  0  0  0  0  0  0  0  0  0  0
   -3.1825    1.6783    0.7480 N   0  0  0  0  0  0  0  0  0  0  0  0
  1  2  1  0  0  0  0
  2 16  1  0  0  0  0
  3  7  1  0  0  0  0
  3  4  2  0  0  0  0
  4 10  1  0  0  0  0
  4  6  1  0  0  0  0
  5  2  2  0  0  0  0
  5  3  1  0  0  0  0
  6  1  2  0  0  0  0
  7  8  1  0  0  0  0
  7  9  2  0  0  0  0
  8 11  2  0  0  0  0
  8 12  1  0  0  0  0
  9 13  1  0  0  0  0
  9 14  2  0  0  0  0
 10 15  2  0  0  0  0
 11 17  1  0  0  0  0
 12 18  2  0  0  0  0
 13 15  1  0  0  0  0
 15 21  1  0  0  0  0
 17 19  2  0  0  0  0
 18 19  1  0  0  0  0
 21 20  1  0  0  0  0
M  END
