477
 OpenBabel10141417503D

 21 23  0  0  0  0  0  0  0  0999 V2000
    1.2922    1.4882   -2.4067 Cl  0  0  0  0  0  0  0  0  0  0  0  0
    7.1051    2.0126   -0.0875 S   0  0  0  0  0  0  0  0  0  0  0  0
    5.8451   -0.6500   -1.2176 N   0  0  0  0  0  0  0  0  0  0  0  0
    2.6839   -3.4056    0.1825 N   0  0  0  0  0  0  0  0  0  0  0  0
    5.1389   -1.9157   -0.8576 C   0  0  0  0  0  0  0  0  0  0  0  0
    4.6888   -1.9221    0.6122 C   0  0  0  0  0  0  0  0  0  0  0  0
    3.9033   -3.1927    0.9847 C   0  0  0  0  0  0  0  0  0  0  0  0
    5.0264    0.5194   -1.2479 C   0  0  0  0  0  0  0  0  0  0  0  0
    7.2521   -0.6412   -0.9971 C   0  0  0  0  0  0  0  0  0  0  0  0
    5.4854    1.7640   -0.7762 C   0  0  0  0  0  0  0  0  0  0  0  0
    7.9265    0.4932   -0.5106 C   0  0  0  0  0  0  0  0  0  0  0  0
    3.7220    0.4788   -1.7860 C   0  0  0  0  0  0  0  0  0  0  0  0
    8.0462   -1.7615   -1.3262 C   0  0  0  0  0  0  0  0  0  0  0  0
    4.6428    2.8943   -0.7816 C   0  0  0  0  0  0  0  0  0  0  0  0
    9.3188    0.4689   -0.2962 C   0  0  0  0  0  0  0  0  0  0  0  0
    2.0188   -4.6556    0.5669 C   0  0  0  0  0  0  0  0  0  0  0  0
    1.7372   -2.2963    0.3305 C   0  0  0  0  0  0  0  0  0  0  0  0
    2.8914    1.6058   -1.7797 C   0  0  0  0  0  0  0  0  0  0  0  0
    9.4292   -1.7833   -1.1042 C   0  0  0  0  0  0  0  0  0  0  0  0
    3.3422    2.8100   -1.2698 C   0  0  0  0  0  0  0  0  0  0  0  0
   10.0638   -0.6723   -0.5776 C   0  0  0  0  0  0  0  0  0  0  0  0
  1 18  1  0  0  0  0
  2 10  1  0  0  0  0
  2 11  1  0  0  0  0
  3  5  1  0  0  0  0
  3  8  1  0  0  0  0
  3  9  1  0  0  0  0
  4  7  1  0  0  0  0
  4 16  1  0  0  0  0
  4 17  1  0  0  0  0
  5  6  1  0  0  0  0
  6  7  1  0  0  0  0
  8 10  2  0  0  0  0
  8 12  1  0  0  0  0
  9 11  1  0  0  0  0
  9 13  2  0  0  0  0
 10 14  1  0  0  0  0
 11 15  2  0  0  0  0
 12 18  2  0  0  0  0
 13 19  1  0  0  0  0
 14 20  2  0  0  0  0
 15 21  1  0  0  0  0
 18 20  1  0  0  0  0
 19 21  2  0  0  0  0
M  END
