1178
 OpenBabel10141417483D

 17 18  0  0  1  0  0  0  0  0999 V2000
    1.0026   -0.5100    0.4446 Cl  0  0  0  0  0  0  0  0  0  0  0  0
    7.7494   -1.7236    0.2030 S   0  0  0  0  0  0  0  0  0  0  0  0
    6.8105   -2.8258    0.1171 O   0  0  0  0  0  0  0  0  0  0  0  0
    9.0655   -1.8464   -0.4000 O   0  0  0  0  0  0  0  0  0  0  0  0
    8.3072    2.2528    2.0037 O   0  0  0  0  0  0  0  0  0  0  0  0
    7.6187    1.0770    0.1639 N   0  0  0  0  0  0  0  0  0  0  0  0
    7.0028   -0.1653   -0.3554 C   0  0  3  0  0  0  0  0  0  0  0  0
    7.9849   -1.3385    1.9110 C   0  0  0  0  0  0  0  0  0  0  0  0
    8.7939   -0.0723    2.0479 C   0  0  0  0  0  0  0  0  0  0  0  0
    5.4930   -0.2312   -0.1239 C   0  0  0  0  0  0  0  0  0  0  0  0
    8.1866    1.1729    1.4244 C   0  0  0  0  0  0  0  0  0  0  0  0
    7.2576    2.3135   -0.5158 C   0  0  0  0  0  0  0  0  0  0  0  0
    4.8789    0.2737    1.0367 C   0  0  0  0  0  0  0  0  0  0  0  0
    4.6739   -0.8239   -1.1043 C   0  0  0  0  0  0  0  0  0  0  0  0
    3.4937    0.1877    1.2098 C   0  0  0  0  0  0  0  0  0  0  0  0
    3.2902   -0.9120   -0.9282 C   0  0  0  0  0  0  0  0  0  0  0  0
    2.7055   -0.4054    0.2280 C   0  0  0  0  0  0  0  0  0  0  0  0
  1 17  1  0  0  0  0
  2  3  2  0  0  0  0
  2  4  2  0  0  0  0
  2  7  1  0  0  0  0
  2  8  1  0  0  0  0
  5 11  2  0  0  0  0
  6  7  1  0  0  0  0
  6 11  1  0  0  0  0
  6 12  1  0  0  0  0
  7 10  1  0  0  0  0
  8  9  1  0  0  0  0
  9 11  1  0  0  0  0
 10 13  2  0  0  0  0
 10 14  1  0  0  0  0
 13 15  1  0  0  0  0
 14 16  2  0  0  0  0
 15 17  2  0  0  0  0
 16 17  1  0  0  0  0
M  END
