291
 OpenBabel10141417473D

 19 19  0  0  0  0  0  0  0  0999 V2000
    8.6022    4.2501    0.2653 Cl  0  0  0  0  0  0  0  0  0  0  0  0
    4.5533   -0.6712    3.0490 Cl  0  0  0  0  0  0  0  0  0  0  0  0
    6.5817   -6.7921   -4.1986 O   0  0  0  0  0  0  0  0  0  0  0  0
    7.6206   -5.8934   -5.9557 O   0  0  0  0  0  0  0  0  0  0  0  0
    6.2360    0.8567    0.3223 N   0  0  0  0  0  0  0  0  0  0  0  0
    6.2550   -0.3365   -0.4149 C   0  0  0  0  0  0  0  0  0  0  0  0
    6.9029   -4.2031   -2.3809 C   0  0  0  0  0  0  0  0  0  0  0  0
    6.6205   -2.8593   -1.7513 C   0  0  0  0  0  0  0  0  0  0  0  0
    8.2232   -4.2399   -3.1692 C   0  0  0  0  0  0  0  0  0  0  0  0
    7.3864    1.7929    0.1372 C   0  0  0  0  0  0  0  0  0  0  0  0
    4.9783    1.2715    0.9802 C   0  0  0  0  0  0  0  0  0  0  0  0
    6.8590   -0.4327   -1.6701 C   0  0  0  0  0  0  0  0  0  0  0  0
    5.7005   -1.5332    0.0509 C   0  0  0  0  0  0  0  0  0  0  0  0
    7.0305   -1.6582   -2.3281 C   0  0  0  0  0  0  0  0  0  0  0  0
    5.8875   -2.7744   -0.5763 C   0  0  0  0  0  0  0  0  0  0  0  0
    8.5825   -5.6032   -3.7411 C   0  0  0  0  0  0  0  0  0  0  0  0
    7.1639    3.2391    0.5779 C   0  0  0  0  0  0  0  0  0  0  0  0
    4.8317    0.9921    2.4912 C   0  0  0  0  0  0  0  0  0  0  0  0
    7.5853   -6.0876   -4.7734 C   0  0  0  0  0  0  0  0  0  0  0  0
  1 17  1  0  0  0  0
  2 18  1  0  0  0  0
  3 19  1  0  0  0  0
  4 19  2  0  0  0  0
  5  6  1  0  0  0  0
  5 10  1  0  0  0  0
  5 11  1  0  0  0  0
  6 12  2  0  0  0  0
  6 13  1  0  0  0  0
  7  8  1  0  0  0  0
  7  9  1  0  0  0  0
  8 14  2  0  0  0  0
  8 15  1  0  0  0  0
  9 16  1  0  0  0  0
 10 17  1  0  0  0  0
 11 18  1  0  0  0  0
 12 14  1  0  0  0  0
 13 15  2  0  0  0  0
 16 19  1  0  0  0  0
M  END
