
 OpenBabel10141417593D

 21 23  0  0  0  0  0  0  0  0999 V2000
    0.7851    1.5231   -0.0519 N   0  0  0  0  0  0  0  0  0  0  0  0
    0.9505    1.6610   -1.5304 C   0  0  3  0  0  0  0  0  0  0  0  0
   -0.7125   -1.0485    0.6116 N   0  0  0  0  0  0  0  0  0  0  0  0
    0.2781    2.9201   -2.1137 C   0  0  0  0  0  0  0  0  0  0  0  0
    1.4437    0.3083    0.4910 C   0  0  0  0  0  0  0  0  0  0  0  0
   -0.6405    1.4822    0.3663 C   0  0  0  0  0  0  0  0  0  0  0  0
    2.4224    1.6398   -1.9737 C   0  0  0  0  0  0  0  0  0  0  0  0
   -0.2293    2.8935   -3.4239 C   0  0  0  0  0  0  0  0  0  0  0  0
    0.1942    4.1258   -1.3890 C   0  0  0  0  0  0  0  0  0  0  0  0
    0.7083   -1.0273    0.2135 C   0  0  0  0  0  0  0  0  0  0  0  0
   -1.3847    0.1545    0.0890 C   0  0  0  0  0  0  0  0  0  0  0  0
   -0.9367    5.1954   -3.2285 C   0  0  0  0  0  0  0  0  0  0  0  0
   -0.4237    5.2512   -1.9382 C   0  0  0  0  0  0  0  0  0  0  0  0
   -0.8342    4.0250   -3.9784 C   0  0  0  0  0  0  0  0  0  0  0  0
   -1.7006    6.5799   -3.9065 Cl  0  0  0  0  0  0  0  0  0  0  0  0
   -0.8606   -1.1509    2.0646 C   0  0  0  0  0  0  0  0  0  0  0  0
    2.8750    0.6583   -2.8740 C   0  0  0  0  0  0  0  0  0  0  0  0
    3.3431    2.5953   -1.5113 C   0  0  0  0  0  0  0  0  0  0  0  0
    4.2077    0.6376   -3.2941 C   0  0  0  0  0  0  0  0  0  0  0  0
    4.6725    2.5764   -1.9373 C   0  0  0  0  0  0  0  0  0  0  0  0
    5.1040    1.5955   -2.8279 C   0  0  0  0  0  0  0  0  0  0  0  0
  2  1  1  0  0  0  0
  3 11  1  0  0  0  0
  4  2  1  0  0  0  0
  5  1  1  0  0  0  0
  6  1  1  0  0  0  0
  7  2  1  0  0  0  0
  8  4  1  0  0  0  0
  9  4  2  0  0  0  0
 10  5  1  0  0  0  0
 10  3  1  0  0  0  0
 11  6  1  0  0  0  0
 12 13  2  0  0  0  0
 13  9  1  0  0  0  0
 14  8  2  0  0  0  0
 14 12  1  0  0  0  0
 15 12  1  0  0  0  0
 16  3  1  0  0  0  0
 17  7  2  0  0  0  0
 18  7  1  0  0  0  0
 19 17  1  0  0  0  0
 20 18  2  0  0  0  0
 20 21  1  0  0  0  0
 21 19  2  0  0  0  0
M  END
