534
 OpenBabel10141417523D

 11 10  0  0  1  0  0  0  0  0999 V2000
    3.7777    0.9638    1.6019 Hg  0  0  0  0  0  0  0  0  0  0  0  0
       nan       nan       nan Cl  0  0  0  0  0  0  0  0  0  0  0  0
    3.1177   -2.2281   -1.1336 O   0  0  0  0  0  0  0  0  0  0  0  0
    6.2311   -0.8473    3.3238 O   0  0  0  0  0  0  0  0  0  0  0  0
    5.5892   -0.7927    1.1429 N   0  0  0  0  0  0  0  0  0  0  0  0
    5.5892   -2.8388    2.4330 N   0  0  0  0  0  0  0  0  0  0  0  0
    3.5910   -1.5141   -0.0011 C   0  0  3  0  0  0  0  0  0  0  0  0
    5.1110   -1.5141   -0.0011 C   0  0  0  0  0  0  0  0  0  0  0  0
    3.0844   -0.0821   -0.0570 C   0  0  0  0  0  0  0  0  0  0  0  0
    5.8219   -1.4646    2.3448 C   0  0  0  0  0  0  0  0  0  0  0  0
    1.6977   -2.2281   -1.1336 C   0  0  0  0  0  0  0  0  0  0  0  0
  1  2  1  0  0  0  0
  1  9  1  0  0  0  0
  3  7  1  0  0  0  0
  3 11  1  0  0  0  0
  4 10  2  0  0  0  0
  5  8  1  0  0  0  0
  5 10  1  0  0  0  0
  6 10  1  0  0  0  0
  7  8  1  0  0  0  0
  7  9  1  0  0  0  0
M  END
