
 OpenBabel10141417483D

 20 20  0  0  1  0  0  0  0  0999 V2000
   -4.9338   -1.4545    1.7490 C   0  0  0  0  0  0  0  0  0  0  0  0
   -3.7621   -1.8168    1.0466 C   0  0  0  0  0  0  0  0  0  0  0  0
   -3.3655   -3.1629    1.0861 C   0  0  0  0  0  0  0  0  0  0  0  0
   -5.6747   -2.3858    2.4747 C   0  0  0  0  0  0  0  0  0  0  0  0
   -4.1250   -4.1202    1.7807 C   0  0  0  0  0  0  0  0  0  0  0  0
   -5.2815   -3.7212    2.4776 C   0  0  0  0  0  0  0  0  0  0  0  0
   -3.0341   -0.7995    0.1663 C   0  0  2  0  0  0  0  0  0  0  0  0
   -1.5021   -0.5899    0.4146 C   0  0  2  0  0  0  0  0  0  0  0  0
   -3.7582    0.4322    0.2316 O   0  0  0  0  0  0  0  0  0  0  0  0
   -0.8756    0.1847   -0.6917 N   0  0  0  0  0  0  0  0  0  0  0  0
   -1.1823    0.0167    1.7969 C   0  0  0  0  0  0  0  0  0  0  0  0
   -1.0448    1.5417   -0.8936 C   0  0  0  0  0  0  0  0  0  0  0  0
    0.2316    0.1982    1.9418 O   0  0  0  0  0  0  0  0  0  0  0  0
   -6.0714   -4.7161    3.2129 N   0  3  0  0  0  0  0  0  0  0  0  0
   -0.3271    2.1745   -2.0889 C   0  0  0  0  0  0  0  0  0  0  0  0
   -1.8369    2.1895   -0.2112 O   0  0  0  0  0  0  0  0  0  0  0  0
   -7.0506   -4.3092    3.8723 O   0  5  0  0  0  0  0  0  0  0  0  0
   -5.7238   -5.8974    3.1382 O   0  0  0  0  0  0  0  0  0  0  0  0
    1.1867    1.3286   -2.4660 Cl  0  0  0  0  0  0  0  0  0  0  0  0
   -1.4358    2.1134   -3.4770 Cl  0  0  0  0  0  0  0  0  0  0  0  0
  1  4  1  0  0  0  0
  2  1  2  0  0  0  0
  2  3  1  0  0  0  0
  3  5  2  0  0  0  0
  4  6  2  0  0  0  0
  5  6  1  0  0  0  0
  6 14  1  0  0  0  0
  7  9  1  1  0  0  0
  7  8  1  0  0  0  0
  7  2  1  0  0  0  0
  8 11  1  6  0  0  0
  8 10  1  0  0  0  0
 10 12  1  0  0  0  0
 11 13  1  0  0  0  0
 12 15  1  0  0  0  0
 12 16  2  0  0  0  0
 14 17  1  0  0  0  0
 14 18  2  0  0  0  0
 15 19  1  0  0  0  0
 15 20  1  0  0  0  0
M  CHG  2  14   1  17  -1
M  END
