672
 OpenBabel10141417533D

 17 17  0  0  0  0  0  0  0  0999 V2000
    7.2365    4.0557   -4.8651 Cl  0  0  0  0  0  0  0  0  0  0  0  0
    6.8328    0.0789   -0.0266 S   0  0  0  0  0  0  0  0  0  0  0  0
    7.3723    0.7249    1.1488 O   0  0  0  0  0  0  0  0  0  0  0  0
    5.4891   -0.4638   -0.0196 O   0  0  0  0  0  0  0  0  0  0  0  0
    9.8403   -0.1046   -0.4723 O   0  0  0  0  0  0  0  0  0  0  0  0
    7.8104   -1.1840   -0.4843 N   0  0  0  0  0  0  0  0  0  0  0  0
    9.7196   -2.3265   -0.9845 N   0  0  0  0  0  0  0  0  0  0  0  0
   11.1385   -2.5129   -1.2186 C   0  0  0  0  0  0  0  0  0  0  0  0
    6.9447    1.1923   -1.4055 C   0  0  0  0  0  0  0  0  0  0  0  0
   11.5001   -2.2591   -2.6797 C   0  0  0  0  0  0  0  0  0  0  0  0
    9.1865   -1.1214   -0.6263 C   0  0  0  0  0  0  0  0  0  0  0  0
    6.0311    1.0950   -2.4611 C   0  0  0  0  0  0  0  0  0  0  0  0
    7.9238    2.1907   -1.3993 C   0  0  0  0  0  0  0  0  0  0  0  0
   12.9815   -2.4735   -2.9477 C   0  0  0  0  0  0  0  0  0  0  0  0
    6.1243    1.9859   -3.5341 C   0  0  0  0  0  0  0  0  0  0  0  0
    8.0145    3.0740   -2.4755 C   0  0  0  0  0  0  0  0  0  0  0  0
    7.1181    2.9670   -3.5385 C   0  0  0  0  0  0  0  0  0  0  0  0
  1 17  1  0  0  0  0
  2  3  2  0  0  0  0
  2  4  2  0  0  0  0
  2  6  1  0  0  0  0
  2  9  1  0  0  0  0
  5 11  2  0  0  0  0
  6 11  1  0  0  0  0
  7  8  1  0  0  0  0
  7 11  1  0  0  0  0
  8 10  1  0  0  0  0
  9 12  2  0  0  0  0
  9 13  1  0  0  0  0
 10 14  1  0  0  0  0
 12 15  1  0  0  0  0
 13 16  2  0  0  0  0
 15 17  2  0  0  0  0
 16 17  1  0  0  0  0
M  END
