122
 OpenBabel10141418123D

  7  6  0  0  0  0  0  0  0  0999 V2000
    3.4010    1.2855   -1.2204 O   0  0  0  0  0  0  0  0  0  0  0  0
    4.9035   -1.2862   -0.3666 N   0  3  0  0  0  0  0  0  0  0  0  0
    3.3767   -1.0127   -0.3944 C   0  0  0  0  0  0  0  0  0  0  0  0
    5.6314   -0.4841   -1.4441 C   0  0  0  0  0  0  0  0  0  0  0  0
    5.5026   -0.9655    0.9923 C   0  0  0  0  0  0  0  0  0  0  0  0
    5.1135   -2.7721   -0.6581 C   0  0  0  0  0  0  0  0  0  0  0  0
    2.9703    0.4513   -0.1516 C   0  0  0  0  0  0  0  0  0  0  0  0
  1  7  1  0  0  0  0
  2  3  1  0  0  0  0
  2  4  1  0  0  0  0
  2  5  1  0  0  0  0
  2  6  1  0  0  0  0
  3  7  1  0  0  0  0
M  CHG  1   2   1
M  END
