1410
 OpenBabel10141417493D

 39 44  0  0  1  0  0  0  0  0999 V2000
   -4.1673    1.5137   10.3693 O   0  0  0  0  0  0  0  0  0  0  0  0
   -2.0194    0.6358   10.1824 O   0  0  0  0  0  0  0  0  0  0  0  0
   -4.4004    3.4313    6.0312 O   0  0  0  0  0  0  0  0  0  0  0  0
   -5.3717   -1.7954   10.5186 O   0  0  0  0  0  0  0  0  0  0  0  0
   -7.7685   -0.5909   11.0037 O   0  0  0  0  0  0  0  0  0  0  0  0
   -0.8473    6.1165    4.5550 O   0  0  0  0  0  0  0  0  0  0  0  0
   -7.4525   -1.1590   13.1888 O   0  0  0  0  0  0  0  0  0  0  0  0
   -4.4727    0.2996    8.1433 C   0  0  1  0  0  0  0  0  0  0  0  0
   -3.2046   -0.4118    7.5555 C   0  0  2  0  0  0  0  0  0  0  0  0
   -2.2201    0.3909    6.6684 C   0  0  1  0  0  0  0  0  0  0  0  0
   -4.3034    0.2374    9.7265 C   0  0  1  0  0  0  0  0  0  0  0  0
   -2.9771    1.4340    5.7947 C   0  0  2  0  0  0  0  0  0  0  0  0
   -2.9522   -0.4217    9.9766 C   0  0  1  0  0  0  0  0  0  0  0  0
   -2.6054   -1.2067    8.7237 C   0  0  0  0  0  0  0  0  0  0  0  0
   -4.7683    1.7177    7.5988 C   0  0  0  0  0  0  0  0  0  0  0  0
   -3.7037    2.4141    6.7497 C   0  0  2  0  0  0  0  0  0  0  0  0
   -2.0032    2.0966    4.7430 C   0  0  1  0  0  0  0  0  0  0  0  0
   -0.9873    1.0157    7.3542 C   0  0  0  0  0  0  0  0  0  0  0  0
   -5.6813   -0.5747    7.6690 C   0  0  0  0  0  0  0  0  0  0  0  0
   -2.7729    1.8260   10.3892 C   0  0  3  0  0  0  0  0  0  0  0  0
   -5.4092   -0.5615   10.4561 C   0  0  0  0  0  0  0  0  0  0  0  0
   -0.0443    1.7037    6.3659 C   0  0  0  0  0  0  0  0  0  0  0  0
   -0.7940    2.6678    5.4828 C   0  0  0  0  0  0  0  0  0  0  0  0
   -1.5295    1.0406    3.7087 C   0  0  0  0  0  0  0  0  0  0  0  0
   -2.3393    2.5331   11.6896 C   0  0  0  0  0  0  0  0  0  0  0  0
   -2.7005    3.1518    3.9006 C   0  0  0  0  0  0  0  0  0  0  0  0
   -6.5841    0.2253   11.0354 C   0  0  0  0  0  0  0  0  0  0  0  0
   -0.4287    3.9599    5.4113 C   0  0  0  0  0  0  0  0  0  0  0  0
   -3.0345    3.8874   11.9040 C   0  0  0  0  0  0  0  0  0  0  0  0
   -0.8144    2.7363   11.7731 C   0  0  0  0  0  0  0  0  0  0  0  0
   -2.3306    4.4370    3.8221 C   0  0  0  0  0  0  0  0  0  0  0  0
   -1.1744    4.9365    4.5888 C   0  0  0  0  0  0  0  0  0  0  0  0
   -2.5832    4.9507   10.9043 C   0  0  0  0  0  0  0  0  0  0  0  0
   -0.2737    3.8271   10.8477 C   0  0  0  0  0  0  0  0  0  0  0  0
   -1.0683    5.1308   10.8719 C   0  0  0  0  0  0  0  0  0  0  0  0
   -8.0272   -1.3150   12.1181 C   0  0  0  0  0  0  0  0  0  0  0  0
   -9.0988   -2.3424   11.8668 C   0  0  0  0  0  0  0  0  0  0  0  0
   -8.4695   -3.6121   11.2568 C   0  0  0  0  0  0  0  0  0  0  0  0
   -9.8547   -2.6916   13.1445 C   0  0  0  0  0  0  0  0  0  0  0  0
  1 11  1  0  0  0  0
  1 20  1  0  0  0  0
  2 20  1  0  0  0  0
  4 21  2  0  0  0  0
  5 27  1  0  0  0  0
  5 36  1  0  0  0  0
  6 32  2  0  0  0  0
  7 36  2  0  0  0  0
  8  9  1  0  0  0  0
  8 11  1  0  0  0  0
  8 15  1  0  0  0  0
  8 19  1  6  0  0  0
  9 10  1  0  0  0  0
  9 14  1  6  0  0  0
 10 18  1  1  0  0  0
 11 13  1  0  0  0  0
 11 21  1  1  0  0  0
 12 10  1  6  0  0  0
 12 16  1  0  0  0  0
 12 17  1  0  0  0  0
 13  2  1  6  0  0  0
 13 14  1  0  0  0  0
 15 16  1  0  0  0  0
 16  3  1  6  0  0  0
 17 23  1  0  0  0  0
 17 26  1  0  0  0  0
 17 24  1  6  0  0  0
 18 22  1  0  0  0  0
 20 25  1  0  0  0  0
 21 27  1  0  0  0  0
 22 23  1  0  0  0  0
 23 28  2  0  0  0  0
 25 29  1  0  0  0  0
 25 30  1  0  0  0  0
 26 31  2  0  0  0  0
 28 32  1  0  0  0  0
 29 33  1  0  0  0  0
 30 34  1  0  0  0  0
 31 32  1  0  0  0  0
 33 35  1  0  0  0  0
 34 35  1  0  0  0  0
 36 37  1  0  0  0  0
 37 38  1  0  0  0  0
 37 39  1  0  0  0  0
M  END
