1166
 OpenBabel10141417493D

 27 30  0  0  0  0  0  0  0  0999 V2000
    0.1534   -0.9980   -0.4833 O   0  0  0  0  0  0  0  0  0  0  0  0
    6.6683   -1.5972   -4.3811 O   0  0  0  0  0  0  0  0  0  0  0  0
   -5.0599    4.0722   -0.2176 N   0  0  0  0  0  0  0  0  0  0  0  0
   -5.2862    5.1874    0.4996 N   0  0  0  0  0  0  0  0  0  0  0  0
   -4.2444    3.6997    1.7661 N   0  0  0  0  0  0  0  0  0  0  0  0
   -4.7983    4.9482    1.7041 N   0  0  0  0  0  0  0  0  0  0  0  0
    5.2242   -0.9497   -2.7680 N   0  0  0  0  0  0  0  0  0  0  0  0
   -5.5195    3.9687   -1.5959 C   0  0  0  0  0  0  0  0  0  0  0  0
   -4.4836    4.4922   -2.6027 C   0  0  0  0  0  0  0  0  0  0  0  0
   -6.9034    4.6015   -1.8564 C   0  0  0  0  0  0  0  0  0  0  0  0
   -4.4489    6.0170   -2.6970 C   0  0  0  0  0  0  0  0  0  0  0  0
   -6.8863    6.1251   -2.0036 C   0  0  0  0  0  0  0  0  0  0  0  0
   -5.8254    6.6074   -2.9861 C   0  0  0  0  0  0  0  0  0  0  0  0
   -4.3917    3.1597    0.5706 C   0  0  0  0  0  0  0  0  0  0  0  0
   -3.9140    1.8002    0.1771 C   0  0  0  0  0  0  0  0  0  0  0  0
   -2.3899    1.6789    0.3430 C   0  0  0  0  0  0  0  0  0  0  0  0
   -1.8472    0.2946   -0.0386 C   0  0  0  0  0  0  0  0  0  0  0  0
   -0.3214    0.2147    0.1212 C   0  0  0  0  0  0  0  0  0  0  0  0
    3.0089   -1.9007   -2.5704 C   0  0  0  0  0  0  0  0  0  0  0  0
    3.3991   -2.9390   -3.5863 C   0  0  0  0  0  0  0  0  0  0  0  0
    3.9717   -0.9780   -2.1511 C   0  0  0  0  0  0  0  0  0  0  0  0
    4.4049   -2.3791   -4.5802 C   0  0  0  0  0  0  0  0  0  0  0  0
    1.4410   -0.9678   -0.9581 C   0  0  0  0  0  0  0  0  0  0  0  0
    1.7443   -1.8951   -1.9629 C   0  0  0  0  0  0  0  0  0  0  0  0
    5.5440   -1.6529   -3.9011 C   0  0  0  0  0  0  0  0  0  0  0  0
    3.7003   -0.0978   -1.1080 C   0  0  0  0  0  0  0  0  0  0  0  0
    2.4398   -0.1030   -0.5034 C   0  0  0  0  0  0  0  0  0  0  0  0
  1 18  1  0  0  0  0
  1 23  1  0  0  0  0
  2 25  2  0  0  0  0
  3  4  1  0  0  0  0
  3  8  1  0  0  0  0
  3 14  1  0  0  0  0
  4  6  2  0  0  0  0
  5  6  1  0  0  0  0
  5 14  2  0  0  0  0
  7 21  1  0  0  0  0
  7 25  1  0  0  0  0
  8  9  1  0  0  0  0
  8 10  1  0  0  0  0
  9 11  1  0  0  0  0
 10 12  1  0  0  0  0
 11 13  1  0  0  0  0
 12 13  1  0  0  0  0
 14 15  1  0  0  0  0
 15 16  1  0  0  0  0
 16 17  1  0  0  0  0
 17 18  1  0  0  0  0
 19 20  1  0  0  0  0
 19 21  2  0  0  0  0
 19 24  1  0  0  0  0
 20 22  1  0  0  0  0
 21 26  1  0  0  0  0
 22 25  1  0  0  0  0
 23 24  2  0  0  0  0
 23 27  1  0  0  0  0
 26 27  2  0  0  0  0
M  END
