1012
 OpenBabel10141417483D

 26 28  0  0  1  0  0  0  0  0999 V2000
   -0.4497    2.5293   -0.9169 F   0  0  0  0  0  0  0  0  0  0  0  0
    0.5716    2.9692    0.9504 F   0  0  0  0  0  0  0  0  0  0  0  0
   -0.4407    1.0633    0.6882 F   0  0  0  0  0  0  0  0  0  0  0  0
    4.0333   -1.7828   -6.4663 N   0  0  0  0  0  0  0  0  0  0  0  0
    4.3541   -1.8420   -7.9046 C   0  0  1  0  0  0  0  0  0  0  0  0
    3.8982   -0.4302   -5.9317 C   0  0  0  0  0  0  0  0  0  0  0  0
    4.5015   -3.3098   -8.3319 C   0  0  0  0  0  0  0  0  0  0  0  0
    3.5921   -0.5091   -4.4342 C   0  0  0  0  0  0  0  0  0  0  0  0
    3.4199    0.8876   -3.8277 C   0  0  0  0  0  0  0  0  0  0  0  0
    5.7016   -3.8426   -8.9004 C   0  0  0  0  0  0  0  0  0  0  0  0
    3.3092   -1.1241   -8.7717 C   0  0  0  0  0  0  0  0  0  0  0  0
    5.7487   -5.2340   -9.2089 C   0  0  0  0  0  0  0  0  0  0  0  0
    3.1042    0.8424   -2.3507 C   0  0  0  0  0  0  0  0  0  0  0  0
    3.3997   -4.1703   -8.1273 C   0  0  0  0  0  0  0  0  0  0  0  0
    6.8678   -3.0924   -9.1874 C   0  0  0  0  0  0  0  0  0  0  0  0
    4.6287   -6.0449   -8.9876 C   0  0  0  0  0  0  0  0  0  0  0  0
    3.4589   -5.5185   -8.4574 C   0  0  0  0  0  0  0  0  0  0  0  0
    1.9156    1.4022   -1.8597 C   0  0  0  0  0  0  0  0  0  0  0  0
    6.9162   -5.8060   -9.7384 C   0  0  0  0  0  0  0  0  0  0  0  0
    4.0011    0.2583   -1.4463 C   0  0  0  0  0  0  0  0  0  0  0  0
    1.6160    1.3738   -0.4873 C   0  0  0  0  0  0  0  0  0  0  0  0
    8.0189   -3.6755   -9.7265 C   0  0  0  0  0  0  0  0  0  0  0  0
    8.0461   -5.0363   -9.9941 C   0  0  0  0  0  0  0  0  0  0  0  0
    3.7123    0.2184   -0.0832 C   0  0  0  0  0  0  0  0  0  0  0  0
    2.5269    0.7735    0.3948 C   0  0  0  0  0  0  0  0  0  0  0  0
    0.3402    1.9764    0.0463 C   0  0  0  0  0  0  0  0  0  0  0  0
  1 26  1  0  0  0  0
  2 26  1  0  0  0  0
  3 26  1  0  0  0  0
  4  6  1  0  0  0  0
  5  4  1  1  0  0  0
  5  7  1  0  0  0  0
  5 11  1  0  0  0  0
  6  8  1  0  0  0  0
  7 10  1  0  0  0  0
  7 14  2  0  0  0  0
  8  9  1  0  0  0  0
  9 13  1  0  0  0  0
 10 12  1  0  0  0  0
 10 15  2  0  0  0  0
 12 16  1  0  0  0  0
 12 19  2  0  0  0  0
 13 18  2  0  0  0  0
 13 20  1  0  0  0  0
 14 17  1  0  0  0  0
 15 22  1  0  0  0  0
 16 17  2  0  0  0  0
 18 21  1  0  0  0  0
 19 23  1  0  0  0  0
 20 24  2  0  0  0  0
 21 25  2  0  0  0  0
 21 26  1  0  0  0  0
 22 23  2  0  0  0  0
 24 25  1  0  0  0  0
M  END
