527
 OpenBabel10141417533D

 25 26  0  0  0  0  0  0  0  0999 V2000
    1.4191    1.2966   -0.8934 O   0  0  0  0  0  0  0  0  0  0  0  0
   -2.2442    5.9278   -1.7194 O   0  0  0  0  0  0  0  0  0  0  0  0
   -3.7588    1.7609   -4.3967 N   0  0  0  0  0  0  0  0  0  0  0  0
   -2.3792    3.8892   -2.7458 N   0  0  0  0  0  0  0  0  0  0  0  0
    1.8130    3.4223    0.0390 N   0  0  0  0  0  0  0  0  0  0  0  0
   -3.9525    3.2353   -4.5296 C   0  0  0  0  0  0  0  0  0  0  0  0
   -3.7424    4.0376   -3.2234 C   0  0  0  0  0  0  0  0  0  0  0  0
   -4.8655    1.1198   -3.6594 C   0  0  0  0  0  0  0  0  0  0  0  0
   -3.5154    1.1472   -5.7198 C   0  0  0  0  0  0  0  0  0  0  0  0
   -0.4455    4.3891   -1.2887 C   0  0  0  0  0  0  0  0  0  0  0  0
   -6.2583    1.2080   -4.2868 C   0  0  0  0  0  0  0  0  0  0  0  0
   -3.2615   -0.3643   -5.7134 C   0  0  0  0  0  0  0  0  0  0  0  0
    0.3863    5.2913   -0.5429 C   0  0  0  0  0  0  0  0  0  0  0  0
   -1.7521    4.8333   -1.9305 C   0  0  0  0  0  0  0  0  0  0  0  0
    1.4803    4.7065    0.1426 C   0  0  0  0  0  0  0  0  0  0  0  0
   -0.0907    3.0423   -1.3507 C   0  0  0  0  0  0  0  0  0  0  0  0
    3.1096   -0.4180   -0.4768 C   0  0  0  0  0  0  0  0  0  0  0  0
    1.0539    2.6209   -0.7200 C   0  0  0  0  0  0  0  0  0  0  0  0
    2.6197    0.9940   -0.1779 C   0  0  0  0  0  0  0  0  0  0  0  0
    2.1120   -1.4933   -0.0585 C   0  0  0  0  0  0  0  0  0  0  0  0
    0.2331    6.6980   -0.4060 C   0  0  0  0  0  0  0  0  0  0  0  0
    2.2737    5.4676    0.9857 C   0  0  0  0  0  0  0  0  0  0  0  0
    1.0618    7.4548    0.4299 C   0  0  0  0  0  0  0  0  0  0  0  0
    2.0677    6.8316    1.1518 C   0  0  0  0  0  0  0  0  0  0  0  0
    2.6831   -2.8839   -0.2884 C   0  0  0  0  0  0  0  0  0  0  0  0
  1 18  1  0  0  0  0
  1 19  1  0  0  0  0
  2 14  2  0  0  0  0
  3  6  1  0  0  0  0
  3  8  1  0  0  0  0
  3  9  1  0  0  0  0
  4  7  1  0  0  0  0
  4 14  1  0  0  0  0
  5 15  1  0  0  0  0
  5 18  2  0  0  0  0
  6  7  1  0  0  0  0
  8 11  1  0  0  0  0
  9 12  1  0  0  0  0
 10 13  1  0  0  0  0
 10 14  1  0  0  0  0
 10 16  2  0  0  0  0
 13 15  1  0  0  0  0
 13 21  2  0  0  0  0
 15 22  2  0  0  0  0
 16 18  1  0  0  0  0
 17 19  1  0  0  0  0
 17 20  1  0  0  0  0
 20 25  1  0  0  0  0
 21 23  1  0  0  0  0
 22 24  1  0  0  0  0
 23 24  2  0  0  0  0
M  END
