568
 OpenBabel10141417483D

 28 31  0  0  0  0  0  0  0  0999 V2000
    0.8269    1.4329   -0.2172 N   0  0  0  0  0  0  0  0  0  0  0  0
   -0.7446   -1.0997    0.4488 N   0  0  0  0  0  0  0  0  0  0  0  0
    1.4347    0.1872    0.3113 C   0  0  0  0  0  0  0  0  0  0  0  0
   -0.5811    1.4524    0.2665 C   0  0  0  0  0  0  0  0  0  0  0  0
    0.9088    1.5426   -1.7115 C   0  0  0  0  0  0  0  0  0  0  0  0
    0.6574   -1.1009   -0.0237 C   0  0  0  0  0  0  0  0  0  0  0  0
   -1.3923    0.1528   -0.0004 C   0  0  0  0  0  0  0  0  0  0  0  0
   -0.8462   -1.2522    1.9092 C   0  0  0  0  0  0  0  0  0  0  0  0
    0.3002    2.8551   -2.2312 C   0  0  0  0  0  0  0  0  0  0  0  0
    2.3210    1.3530   -2.2975 C   0  0  0  0  0  0  0  0  0  0  0  0
   -0.2623   -2.5575    2.3722 C   0  0  0  0  0  0  0  0  0  0  0  0
   -0.7702    2.8319   -3.1445 C   0  0  0  0  0  0  0  0  0  0  0  0
    2.4644    0.7899   -3.5789 C   0  0  0  0  0  0  0  0  0  0  0  0
    0.7843    4.1027   -1.8041 C   0  0  0  0  0  0  0  0  0  0  0  0
    3.4878    1.7227   -1.6054 C   0  0  0  0  0  0  0  0  0  0  0  0
   -1.3450    4.0209   -3.6031 C   0  0  0  0  0  0  0  0  0  0  0  0
    3.7299    0.5537   -4.1218 C   0  0  0  0  0  0  0  0  0  0  0  0
    0.2069    5.2893   -2.2625 C   0  0  0  0  0  0  0  0  0  0  0  0
    4.7526    1.4559   -2.1349 C   0  0  0  0  0  0  0  0  0  0  0  0
    0.9611   -2.6786    2.9249 C   0  0  0  0  0  0  0  0  0  0  0  0
   -0.8594    5.2484   -3.1581 C   0  0  0  0  0  0  0  0  0  0  0  0
    4.8730    0.8697   -3.3920 C   0  0  0  0  0  0  0  0  0  0  0  0
    1.5597   -3.9686    3.2785 C   0  0  0  0  0  0  0  0  0  0  0  0
    0.7818   -5.0440    3.7230 C   0  0  0  0  0  0  0  0  0  0  0  0
    2.9497   -4.1306    3.1958 C   0  0  0  0  0  0  0  0  0  0  0  0
    1.3715   -6.2608    4.0578 C   0  0  0  0  0  0  0  0  0  0  0  0
    3.5424   -5.3478    3.5344 C   0  0  0  0  0  0  0  0  0  0  0  0
    2.7531   -6.4130    3.9634 C   0  0  0  0  0  0  0  0  0  0  0  0
  1  3  1  0  0  0  0
  1  4  1  0  0  0  0
  1  5  1  0  0  0  0
  2  6  1  0  0  0  0
  2  7  1  0  0  0  0
  2  8  1  0  0  0  0
  3  6  1  0  0  0  0
  4  7  1  0  0  0  0
  5  9  1  0  0  0  0
  5 10  1  0  0  0  0
  8 11  1  0  0  0  0
  9 12  2  0  0  0  0
  9 14  1  0  0  0  0
 10 13  2  0  0  0  0
 10 15  1  0  0  0  0
 11 20  2  3  0  0  0
 12 16  1  0  0  0  0
 13 17  1  0  0  0  0
 14 18  2  0  0  0  0
 15 19  2  0  0  0  0
 16 21  2  0  0  0  0
 17 22  2  0  0  0  0
 18 21  1  0  0  0  0
 19 22  1  0  0  0  0
 20 23  1  0  0  0  0
 23 24  2  0  0  0  0
 23 25  1  0  0  0  0
 24 26  1  0  0  0  0
 25 27  2  0  0  0  0
 26 28  2  0  0  0  0
 27 28  1  0  0  0  0
M  END
