1594
 OpenBabel10141417483D

 25 27  0  0  1  0  0  0  0  0999 V2000
    0.7414    0.4978   -0.8363 Cl  0  0  0  0  0  0  0  0  0  0  0  0
    3.8651    1.7716    2.3963 F   0  0  0  0  0  0  0  0  0  0  0  0
    7.9198    2.8763   -2.3586 O   0  0  0  0  0  0  0  0  0  0  0  0
    8.7922    0.8131   -0.7753 O   0  0  0  0  0  0  0  0  0  0  0  0
    6.6760    0.0210   -0.3223 N   0  0  0  0  0  0  0  0  0  0  0  0
    6.3998    3.0674   -0.5438 N   0  0  0  0  0  0  0  0  0  0  0  0
    8.6761   -4.3638    0.3847 N   0  0  0  0  0  0  0  0  0  0  0  0
    5.2501    0.1702   -0.3583 C   0  0  0  0  0  0  0  0  0  0  0  0
    4.5979    1.4215   -0.2783 C   0  0  0  0  0  0  0  0  0  0  0  0
    7.2730   -1.1950    0.2536 C   0  0  0  0  0  0  0  0  0  0  0  0
    5.3253    2.6823    0.0601 C   0  0  0  0  0  0  0  0  0  0  0  0
    7.5684    0.9717   -0.8463 C   0  0  0  0  0  0  0  0  0  0  0  0
    6.9505    2.2023   -1.5761 C   0  0  3  0  0  0  0  0  0  0  0  0
    4.4417   -0.9723   -0.5052 C   0  0  0  0  0  0  0  0  0  0  0  0
    3.2064    1.5216   -0.4605 C   0  0  0  0  0  0  0  0  0  0  0  0
    4.7935    3.5773    1.1426 C   0  0  0  0  0  0  0  0  0  0  0  0
    7.7231   -2.2173   -0.7940 C   0  0  0  0  0  0  0  0  0  0  0  0
    3.0535   -0.8724   -0.6490 C   0  0  0  0  0  0  0  0  0  0  0  0
    2.4443    0.3747   -0.6421 C   0  0  0  0  0  0  0  0  0  0  0  0
    4.0860    3.0854    2.2437 C   0  0  0  0  0  0  0  0  0  0  0  0
    5.0456    4.9557    1.0665 C   0  0  0  0  0  0  0  0  0  0  0  0
    3.6047    3.9458    3.2305 C   0  0  0  0  0  0  0  0  0  0  0  0
    4.5724    5.8195    2.0594 C   0  0  0  0  0  0  0  0  0  0  0  0
    3.8463    5.3155    3.1377 C   0  0  0  0  0  0  0  0  0  0  0  0
    8.2695   -3.4130   -0.1379 C   0  0  0  0  0  0  0  0  0  0  0  0
  1 19  1  0  0  0  0
  2 20  1  0  0  0  0
  3 13  1  0  0  0  0
  4 12  2  0  0  0  0
  5  8  1  0  0  0  0
  5 10  1  0  0  0  0
  5 12  1  0  0  0  0
  6 11  2  0  0  0  0
  6 13  1  0  0  0  0
  7 25  3  0  0  0  0
  8  9  2  0  0  0  0
  8 14  1  0  0  0  0
  9 11  1  0  0  0  0
  9 15  1  0  0  0  0
 10 17  1  0  0  0  0
 11 16  1  0  0  0  0
 12 13  1  0  0  0  0
 14 18  2  0  0  0  0
 15 19  2  0  0  0  0
 16 20  1  0  0  0  0
 16 21  2  0  0  0  0
 17 25  1  0  0  0  0
 18 19  1  0  0  0  0
 20 22  2  0  0  0  0
 21 23  1  0  0  0  0
 22 24  1  0  0  0  0
 23 24  2  0  0  0  0
M  END
