565
 OpenBabel10141417523D

 87 92  0  0  1  0  0  0  0  0999 V2000
    3.5868   -3.8171   -3.6616 S   0  0  0  0  0  0  0  0  0  0  0  0
    0.0458    0.7191    5.7946 S   0  0  0  0  0  0  0  0  0  0  0  0
 -145.6448  -46.4748  -77.2696 O   0  0  0  0  0  0  0  0  0  0  0  0
 -135.3110  -56.9274  -91.1661 O   0  0  0  0  0  0  0  0  0  0  0  0
 -144.6807  -45.5988  -79.8130 O   0  0  0  0  0  0  0  0  0  0  0  0
 -136.6033  -55.5527  -93.4358 O   0  0  0  0  0  0  0  0  0  0  0  0
 -146.4358  -51.6872  -84.2764 O   0  0  0  0  0  0  0  0  0  0  0  0
 -139.9044  -49.9086  -86.5249 O   0  0  0  0  0  0  0  0  0  0  0  0
 -145.8232  -53.6735  -83.3109 O   0  0  0  0  0  0  0  0  0  0  0  0
 -138.1159  -50.3103  -85.1093 O   0  0  0  0  0  0  0  0  0  0  0  0
 -149.4404  -45.6021  -76.9601 O   0  0  0  0  0  0  0  0  0  0  0  0
 -137.0431  -59.9647  -84.6795 O   0  0  0  0  0  0  0  0  0  0  0  0
 -151.6051  -46.2688  -75.5962 O   0  0  0  0  0  0  0  0  0  0  0  0
 -137.9282  -61.5076  -86.8245 O   0  0  0  0  0  0  0  0  0  0  0  0
    3.9742   -4.4753   -4.9089 O   0  5  0  0  0  0  0  0  0  0  0  0
   -1.3917    0.6296    5.5556 O   0  5  0  0  0  0  0  0  0  0  0  0
    2.9301   -4.6740   -2.6797 O   0  0  0  0  0  0  0  0  0  0  0  0
    3.0177   -2.4824   -3.8260 O   0  0  0  0  0  0  0  0  0  0  0  0
    0.4709    0.3522    7.1450 O   0  0  0  0  0  0  0  0  0  0  0  0
    0.6968    1.9005    5.2330 O   0  0  0  0  0  0  0  0  0  0  0  0
 -147.3613  -51.5878  -80.3338 N   0  3  2  0  0  0  0  0  0  0  0  0
 -138.9276  -53.1775  -87.9047 N   0  3  2  0  0  0  0  0  0  0  0  0
 -147.7397  -50.3680  -79.3009 C   0  0  1  0  0  0  0  0  0  0  0  0
 -138.6241  -54.7571  -88.2481 C   0  0  1  0  0  0  0  0  0  0  0  0
 -145.8898  -51.4221  -80.7013 C   0  0  0  0  0  0  0  0  0  0  0  0
 -139.8138  -52.6850  -89.0843 C   0  0  0  0  0  0  0  0  0  0  0  0
 -148.2793  -51.6724  -81.6468 C   0  0  0  0  0  0  0  0  0  0  0  0
 -137.6453  -52.2511  -87.7286 C   0  0  0  0  0  0  0  0  0  0  0  0
 -146.8131  -49.1842  -79.4310 C   0  0  0  0  0  0  0  0  0  0  0  0
 -137.7954  -54.8038  -89.5296 C   0  0  0  0  0  0  0  0  0  0  0  0
 -145.6514  -50.0787  -81.3508 C   0  0  0  0  0  0  0  0  0  0  0  0
 -139.1188  -52.7754  -90.4364 C   0  0  0  0  0  0  0  0  0  0  0  0
 -147.3932  -52.8273  -79.4445 C   0  0  0  0  0  0  0  0  0  0  0  0
 -139.7436  -53.1177  -86.6630 C   0  0  0  0  0  0  0  0  0  0  0  0
 -149.2957  -50.1282  -79.2035 C   0  0  0  0  0  0  0  0  0  0  0  0
 -138.4759  -55.6934  -86.9215 C   0  0  0  0  0  0  0  0  0  0  0  0
 -145.9621  -48.9542  -80.4772 C   0  0  0  0  0  0  0  0  0  0  0  0
 -138.0976  -53.8823  -90.5706 C   0  0  0  0  0  0  0  0  0  0  0  0
 -147.9995  -52.7474  -82.7446 C   0  0  0  0  0  0  0  0  0  0  0  0
 -137.8880  -50.7181  -87.5248 C   0  0  0  0  0  0  0  0  0  0  0  0
 -146.5725  -48.3839  -78.3475 C   0  0  0  0  0  0  0  0  0  0  0  0
 -136.8272  -55.7819  -89.8017 C   0  0  0  0  0  0  0  0  0  0  0  0
 -149.8860  -49.1317  -78.1941 C   0  0  0  0  0  0  0  0  0  0  0  0
 -138.3174  -57.2313  -86.9461 C   0  0  0  0  0  0  0  0  0  0  0  0
 -145.2943  -47.7484  -80.6747 C   0  0  0  0  0  0  0  0  0  0  0  0
 -137.5237  -54.0370  -91.8396 C   0  0  0  0  0  0  0  0  0  0  0  0
 -145.8339  -47.2021  -78.4186 C   0  0  0  0  0  0  0  0  0  0  0  0
 -136.2421  -55.9275  -91.0851 C   0  0  0  0  0  0  0  0  0  0  0  0
 -145.2678  -46.8215  -79.6474 C   0  0  0  0  0  0  0  0  0  0  0  0
 -136.7419  -55.1511  -92.1312 C   0  0  0  0  0  0  0  0  0  0  0  0
 -146.6945  -52.7516  -83.4964 C   0  0  0  0  0  0  0  0  0  0  0  0
 -138.6177  -50.2491  -86.2761 C   0  0  0  0  0  0  0  0  0  0  0  0
 -149.4310  -47.8044  -78.0707 C   0  0  0  0  0  0  0  0  0  0  0  0
 -137.7640  -57.9185  -85.8409 C   0  0  0  0  0  0  0  0  0  0  0  0
 -151.0087  -49.4598  -77.4286 C   0  0  0  0  0  0  0  0  0  0  0  0
 -138.7773  -58.0481  -87.9730 C   0  0  0  0  0  0  0  0  0  0  0  0
 -149.9461  -46.8670  -77.1593 C   0  0  0  0  0  0  0  0  0  0  0  0
 -137.6140  -59.3420  -85.7771 C   0  0  0  0  0  0  0  0  0  0  0  0
 -151.5883  -48.5202  -76.5563 C   0  0  0  0  0  0  0  0  0  0  0  0
 -138.6284  -59.4578  -87.9403 C   0  0  0  0  0  0  0  0  0  0  0  0
 -151.0523  -47.2373  -76.3911 C   0  0  0  0  0  0  0  0  0  0  0  0
 -138.0398  -60.1350  -86.8674 C   0  0  0  0  0  0  0  0  0  0  0  0
 -145.2389  -50.9758  -83.9282 C   0  0  0  0  0  0  0  0  0  0  0  0
 -140.9906  -50.4133  -85.6749 C   0  0  0  0  0  0  0  0  0  0  0  0
 -144.0823  -50.6965  -84.8582 C   0  0  0  0  0  0  0  0  0  0  0  0
 -141.7922  -49.3636  -84.9460 C   0  0  0  0  0  0  0  0  0  0  0  0
 -146.4285  -46.8836  -76.1138 C   0  0  0  0  0  0  0  0  0  0  0  0
 -134.3646  -56.9444  -92.2394 C   0  0  0  0  0  0  0  0  0  0  0  0
 -142.9674  -49.9005  -84.0980 C   0  0  0  0  0  0  0  0  0  0  0  0
 -143.5436  -45.6005  -80.6846 C   0  0  0  0  0  0  0  0  0  0  0  0
 -137.7908  -55.4010  -94.2313 C   0  0  0  0  0  0  0  0  0  0  0  0
 -148.3600  -45.1053  -77.7408 C   0  0  0  0  0  0  0  0  0  0  0  0
 -136.6097  -59.1014  -83.6203 C   0  0  0  0  0  0  0  0  0  0  0  0
 -152.3673  -46.6988  -74.4766 C   0  0  0  0  0  0  0  0  0  0  0  0
 -137.8940  -62.2710  -88.0466 C   0  0  0  0  0  0  0  0  0  0  0  0
    5.1802   -3.4905   -2.8613 C   0  0  0  0  0  0  0  0  0  0  0  0
    0.7390   -0.6248    4.7936 C   0  0  0  0  0  0  0  0  0  0  0  0
    5.3245   -2.3709   -2.0374 C   0  0  0  0  0  0  0  0  0  0  0  0
   -0.1049   -1.4469    4.0421 C   0  0  0  0  0  0  0  0  0  0  0  0
    6.2591   -4.3458   -3.1040 C   0  0  0  0  0  0  0  0  0  0  0  0
    2.1238   -0.8235    4.7865 C   0  0  0  0  0  0  0  0  0  0  0  0
    6.5581   -2.1168   -1.4368 C   0  0  0  0  0  0  0  0  0  0  0  0
    0.4431   -2.4749    3.2745 C   0  0  0  0  0  0  0  0  0  0  0  0
    7.4897   -4.0862   -2.5006 C   0  0  0  0  0  0  0  0  0  0  0  0
    2.6652   -1.8547    4.0160 C   0  0  0  0  0  0  0  0  0  0  0  0
    7.6379   -2.9737   -1.6678 C   0  0  0  0  0  0  0  0  0  0  0  0
    1.8251   -2.6780    3.2611 C   0  0  0  0  0  0  0  0  0  0  0  0
  1 15  1  0  0  0  0
  1 17  2  0  0  0  0
  1 18  2  0  0  0  0
  1 76  1  0  0  0  0
  2 16  1  0  0  0  0
  2 19  2  0  0  0  0
  2 20  2  0  0  0  0
  2 77  1  0  0  0  0
  3 47  1  0  0  0  0
  3 67  1  0  0  0  0
  4 48  1  0  0  0  0
  4 68  1  0  0  0  0
  5 49  1  0  0  0  0
  5 70  1  0  0  0  0
  6 50  1  0  0  0  0
  6 71  1  0  0  0  0
  7 51  1  0  0  0  0
  7 63  1  0  0  0  0
  8 52  1  0  0  0  0
  8 64  1  0  0  0  0
  9 51  2  0  0  0  0
 10 52  2  0  0  0  0
 11 57  1  0  0  0  0
 11 72  1  0  0  0  0
 12 58  1  0  0  0  0
 12 73  1  0  0  0  0
 13 61  1  0  0  0  0
 13 74  1  0  0  0  0
 14 62  1  0  0  0  0
 14 75  1  0  0  0  0
 21 23  1  0  0  0  0
 21 25  1  0  0  0  0
 21 27  1  6  0  0  0
 21 33  1  0  0  0  0
 22 24  1  0  0  0  0
 22 26  1  0  0  0  0
 22 34  1  1  0  0  0
 22 28  1  0  0  0  0
 23 29  1  0  0  0  0
 23 35  1  6  0  0  0
 24 30  1  0  0  0  0
 24 36  1  1  0  0  0
 25 31  1  0  0  0  0
 26 32  1  0  0  0  0
 27 39  1  0  0  0  0
 28 40  1  0  0  0  0
 29 37  1  0  0  0  0
 29 41  2  0  0  0  0
 30 38  1  0  0  0  0
 30 42  2  0  0  0  0
 31 37  1  0  0  0  0
 32 38  1  0  0  0  0
 35 43  1  0  0  0  0
 36 44  1  0  0  0  0
 37 45  2  0  0  0  0
 38 46  2  0  0  0  0
 39 51  1  0  0  0  0
 40 52  1  0  0  0  0
 41 47  1  0  0  0  0
 42 48  1  0  0  0  0
 43 53  2  0  0  0  0
 43 55  1  0  0  0  0
 44 54  2  0  0  0  0
 44 56  1  0  0  0  0
 45 49  1  0  0  0  0
 46 50  1  0  0  0  0
 47 49  2  0  0  0  0
 48 50  2  0  0  0  0
 53 57  1  0  0  0  0
 54 58  1  0  0  0  0
 55 59  2  0  0  0  0
 56 60  2  0  0  0  0
 57 61  2  0  0  0  0
 58 62  2  0  0  0  0
 59 61  1  0  0  0  0
 60 62  1  0  0  0  0
 63 65  1  0  0  0  0
 64 66  1  0  0  0  0
 65 69  1  0  0  0  0
 66 69  1  0  0  0  0
 76 78  2  0  0  0  0
 76 80  1  0  0  0  0
 77 79  2  0  0  0  0
 77 81  1  0  0  0  0
 78 82  1  0  0  0  0
 79 83  1  0  0  0  0
 80 84  2  0  0  0  0
 81 85  2  0  0  0  0
 82 86  2  0  0  0  0
 83 87  2  0  0  0  0
 84 86  1  0  0  0  0
 85 87  1  0  0  0  0
M  CHG  4  15  -1  16  -1  21   1  22   1
M  END
