215
 OpenBabel10141417493D

 24 26  0  0  1  0  0  0  0  0999 V2000
    1.3105    0.7058    4.0889 F   0  0  0  0  0  0  0  0  0  0  0  0
    6.5935   -0.4157    0.7813 O   0  0  0  0  0  0  0  0  0  0  0  0
    3.7975    1.8726   -3.1057 N   0  0  0  0  0  0  0  0  0  0  0  0
   11.1504    4.2150    3.7372 N   0  0  0  0  0  0  0  0  0  0  0  0
    5.9340    0.8913    0.7464 C   0  0  3  0  0  0  0  0  0  0  0  0
    5.6313    1.2212   -0.7400 C   0  0  0  0  0  0  0  0  0  0  0  0
    7.0189    1.8055    1.2829 C   0  0  0  0  0  0  0  0  0  0  0  0
    8.0326    1.0473    1.8513 C   0  0  0  0  0  0  0  0  0  0  0  0
    4.7346    0.2025   -1.4656 C   0  0  0  0  0  0  0  0  0  0  0  0
    4.6758    0.8444    1.6412 C   0  0  0  0  0  0  0  0  0  0  0  0
    7.7183   -0.3907    1.6882 C   0  0  0  0  0  0  0  0  0  0  0  0
    4.4718    0.5712   -2.9400 C   0  0  0  0  0  0  0  0  0  0  0  0
    7.0961    3.1943    1.2854 C   0  0  0  0  0  0  0  0  0  0  0  0
    9.1205    1.6406    2.4781 C   0  0  0  0  0  0  0  0  0  0  0  0
    4.1869    1.9938    2.2963 C   0  0  0  0  0  0  0  0  0  0  0  0
    3.9617   -0.3564    1.8383 C   0  0  0  0  0  0  0  0  0  0  0  0
    8.1785    3.8108    1.9188 C   0  0  0  0  0  0  0  0  0  0  0  0
    9.1860    3.0383    2.5208 C   0  0  0  0  0  0  0  0  0  0  0  0
    3.0624    1.9472    3.1253 C   0  0  0  0  0  0  0  0  0  0  0  0
    2.8195   -0.3996    2.6494 C   0  0  0  0  0  0  0  0  0  0  0  0
    2.3863    0.7510    3.2923 C   0  0  0  0  0  0  0  0  0  0  0  0
    3.6514    2.2033   -4.5255 C   0  0  0  0  0  0  0  0  0  0  0  0
    2.4834    1.8967   -2.4591 C   0  0  0  0  0  0  0  0  0  0  0  0
   10.2784    3.6894    3.1916 C   0  0  0  0  0  0  0  0  0  0  0  0
  1 21  1  0  0  0  0
  2  5  1  0  0  0  0
  2 11  1  0  0  0  0
  3 12  1  0  0  0  0
  3 22  1  0  0  0  0
  3 23  1  0  0  0  0
  4 24  3  0  0  0  0
  5  6  1  0  0  0  0
  5  7  1  0  0  0  0
  5 10  1  0  0  0  0
  6  9  1  0  0  0  0
  7  8  2  0  0  0  0
  7 13  1  0  0  0  0
  8 11  1  0  0  0  0
  8 14  1  0  0  0  0
  9 12  1  0  0  0  0
 10 15  2  0  0  0  0
 10 16  1  0  0  0  0
 13 17  2  0  0  0  0
 14 18  2  0  0  0  0
 15 19  1  0  0  0  0
 16 20  2  0  0  0  0
 17 18  1  0  0  0  0
 18 24  1  0  0  0  0
 19 21  2  0  0  0  0
 20 21  1  0  0  0  0
M  END
