242
 OpenBabel10141417473D

 19 21  0  0  1  0  0  0  0  0999 V2000
    3.6374    1.7437   -0.8673 Cl  0  0  0  0  0  0  0  0  0  0  0  0
    4.9798   -4.7691    0.7925 O   0  0  0  0  0  0  0  0  0  0  0  0
    4.3981   -6.3483   -2.3853 O   0  0  0  0  0  0  0  0  0  0  0  0
    7.2182   -6.5465    0.1985 O   0  0  0  0  0  0  0  0  0  0  0  0
    5.8136   -2.6936    0.0328 N   0  0  0  0  0  0  0  0  0  0  0  0
    7.8617   -1.8917    0.4008 N   0  0  0  0  0  0  0  0  0  0  0  0
    4.6369   -0.6141   -0.4554 N   0  0  0  0  0  0  0  0  0  0  0  0
    6.1180    1.3140   -0.2479 N   0  0  0  0  0  0  0  0  0  0  0  0
    8.3998    1.1540    0.2997 N   0  0  0  0  0  0  0  0  0  0  0  0
    4.6948   -3.6179   -0.0296 C   0  0  1  0  0  0  0  0  0  0  0  0
    5.0388   -5.4739   -1.4700 C   0  0  1  0  0  0  0  0  0  0  0  0
    4.3724   -4.1190   -1.4304 C   0  0  0  0  0  0  0  0  0  0  0  0
    4.8659   -5.9462   -0.0322 C   0  0  1  0  0  0  0  0  0  0  0  0
    5.8812   -7.0109    0.3845 C   0  0  0  0  0  0  0  0  0  0  0  0
    5.7225   -1.3362   -0.1400 C   0  0  0  0  0  0  0  0  0  0  0  0
    7.1159   -2.9786    0.3472 C   0  0  0  0  0  0  0  0  0  0  0  0
    7.0020   -0.8580    0.1088 C   0  0  0  0  0  0  0  0  0  0  0  0
    7.1810    0.5358    0.0448 C   0  0  0  0  0  0  0  0  0  0  0  0
    4.9410    0.7015   -0.4863 C   0  0  0  0  0  0  0  0  0  0  0  0
  1 19  1  0  0  0  0
  2 10  1  0  0  0  0
  2 13  1  0  0  0  0
  4 14  1  0  0  0  0
  5 15  1  0  0  0  0
  5 16  1  0  0  0  0
  6 16  2  0  0  0  0
  6 17  1  0  0  0  0
  7 15  2  0  0  0  0
  7 19  1  0  0  0  0
  8 18  1  0  0  0  0
  8 19  2  0  0  0  0
  9 18  1  0  0  0  0
 10  5  1  6  0  0  0
 10 12  1  0  0  0  0
 11 12  1  0  0  0  0
 11 13  1  0  0  0  0
 11  3  1  6  0  0  0
 13 14  1  1  0  0  0
 15 17  1  0  0  0  0
 17 18  2  0  0  0  0
M  END
