
 OpenBabel10141417493D

 52 54  0  0  0  0  0  0  0  0999 V2000
    3.8835   -2.6133    3.2499 C   0  0  2  0  0  0  0  0  0  0  0  0
    6.7035    0.3502    0.1825 C   0  0  2  0  0  0  0  0  0  0  0  0
    9.1980    0.3563   -0.6153 C   0  0  0  0  0  0  0  0  0  0  0  0
   11.9212   -1.5883   -1.4971 C   0  0  1  0  0  0  0  0  0  0  0  0
    7.7227    0.3081   -1.0461 C   0  0  2  0  0  0  0  0  0  0  0  0
    2.3836   -2.9408    2.8935 C   0  0  1  0  0  0  0  0  0  0  0  0
    5.8845   -1.7015    1.9129 C   0  0  1  0  0  0  0  0  0  0  0  0
    6.1954   -1.1796    0.4135 C   0  0  1  0  0  0  0  0  0  0  0  0
   11.4609   -3.5653    0.1789 C   0  0  2  0  0  0  0  0  0  0  0  0
    9.9403   -0.1405   -1.6579 O   0  0  0  0  0  0  0  0  0  0  0  0
   11.7011   -2.0634   -0.0171 C   0  0  1  0  0  0  0  0  0  0  0  0
   10.6769   -3.7458    1.4778 C   0  0  0  0  0  0  0  0  0  0  0  0
    4.4733   -2.1072    1.9949 O   0  0  0  0  0  0  0  0  0  0  0  0
    3.9144    3.9469    1.0220 C   0  0  2  0  0  0  0  0  0  0  0  0
    1.6528   -4.0056    3.7959 C   0  0  2  0  0  0  0  0  0  0  0  0
    6.8702   -2.9397    2.3184 C   0  0  1  0  0  0  0  0  0  0  0  0
    5.8041    2.6412   -0.1686 C   0  0  1  0  0  0  0  0  0  0  0  0
    4.5538    3.5378   -0.3147 C   0  0  0  0  0  0  0  0  0  0  0  0
    4.5239   -3.7704    3.7765 O   0  0  0  0  0  0  0  0  0  0  0  0
    6.7559    3.1997    0.7127 O   0  0  0  0  0  0  0  0  0  0  0  0
   11.3966   -0.1132   -1.6415 C   0  0  2  0  0  0  0  0  0  0  0  0
    5.0517    4.3926    1.9978 C   0  0  2  0  0  0  0  0  0  0  0  0
    5.5516    1.2382    0.0355 O   0  0  0  0  0  0  0  0  0  0  0  0
    6.2474    3.4265    2.0221 C   0  0  2  0  0  0  0  0  0  0  0  0
    9.1636   -4.0225    1.4282 C   0  0  1  0  0  0  0  0  0  0  0  0
    8.3927   -2.7564    1.9268 C   0  0  0  0  0  0  0  0  0  0  0  0
    2.6280   -5.0513    4.3187 C   0  0  0  0  0  0  0  0  0  0  0  0
    0.5394   -4.7505    3.1139 N   0  0  0  0  0  0  0  0  0  0  0  0
    9.6373    0.7296    0.4404 O   0  0  0  0  0  0  0  0  0  0  0  0
    3.8713   -4.3999    4.8585 C   0  0  1  0  0  0  0  0  0  0  0  0
   11.2419   -3.5764    2.5633 O   0  0  0  0  0  0  0  0  0  0  0  0
   13.3375   -1.6378   -1.7538 O   0  0  0  0  0  0  0  0  0  0  0  0
    1.6297   -1.7061    2.9239 O   0  0  0  0  0  0  0  0  0  0  0  0
   12.8492   -1.6411    0.7460 O   0  0  0  0  0  0  0  0  0  0  0  0
    3.1770    2.8362    1.5731 O   0  0  0  0  0  0  0  0  0  0  0  0
    6.8636   -2.9345    3.7722 O   0  0  0  0  0  0  0  0  0  0  0  0
    4.5601    4.6090    3.3237 O   0  0  0  0  0  0  0  0  0  0  0  0
   11.2638   -2.4932   -2.5567 C   0  0  0  0  0  0  0  0  0  0  0  0
    7.5670    1.2764   -2.2154 C   0  0  0  0  0  0  0  0  0  0  0  0
    5.1710   -1.5925   -0.6545 C   0  0  0  0  0  0  0  0  0  0  0  0
   12.6973   -4.4547    0.1770 C   0  0  0  0  0  0  0  0  0  0  0  0
    2.9441    5.1509    0.8944 C   0  0  0  0  0  0  0  0  0  0  0  0
    6.2609   -4.2302    1.7060 C   0  0  0  0  0  0  0  0  0  0  0  0
   11.8305    0.5368   -2.9756 C   0  0  0  0  0  0  0  0  0  0  0  0
    7.4081    4.0215    2.8220 C   0  0  0  0  0  0  0  0  0  0  0  0
    8.7165   -4.5398    0.0542 C   0  0  0  0  0  0  0  0  0  0  0  0
   -0.1115   -5.7439    3.9824 C   0  0  0  0  0  0  0  0  0  0  0  0
   -0.4767   -3.8496    2.5753 C   0  0  0  0  0  0  0  0  0  0  0  0
    4.7322   -5.5164    5.4487 C   0  0  0  0  0  0  0  0  0  0  0  0
    2.1267    2.3338    0.7353 C   0  0  0  0  0  0  0  0  0  0  0  0
    7.6260   -3.9222    4.4508 C   0  0  0  0  0  0  0  0  0  0  0  0
   11.3375    1.9689   -3.1437 C   0  0  0  0  0  0  0  0  0  0  0  0
  1 13  1  6  0  0  0
  2  8  1  0  0  0  0
  2 23  1  6  0  0  0
  3  5  1  0  0  0  0
  4 11  1  0  0  0  0
  4 32  1  6  0  0  0
  5  2  1  0  0  0  0
  5 39  1  6  0  0  0
  6  1  1  0  0  0  0
  6 33  1  1  0  0  0
  7 13  1  6  0  0  0
  8  7  1  0  0  0  0
  8 40  1  6  0  0  0
  9 12  1  0  0  0  0
  9 41  1  1  0  0  0
 10  3  1  0  0  0  0
 11  9  1  0  0  0  0
 11 34  1  1  0  0  0
 12 25  1  0  0  0  0
 14 18  1  0  0  0  0
 14 22  1  0  0  0  0
 14 42  1  6  0  0  0
 14 35  1  0  0  0  0
 15  6  1  0  0  0  0
 15 28  1  6  0  0  0
 15 27  1  0  0  0  0
 16  7  1  0  0  0  0
 16 36  1  1  0  0  0
 17 23  1  1  0  0  0
 18 17  1  0  0  0  0
 19  1  1  0  0  0  0
 20 17  1  0  0  0  0
 21 10  1  0  0  0  0
 21 44  1  6  0  0  0
 21  4  1  0  0  0  0
 22 24  1  0  0  0  0
 22 37  1  1  0  0  0
 24 20  1  0  0  0  0
 24 45  1  1  0  0  0
 25 26  1  0  0  0  0
 25 46  1  6  0  0  0
 26 16  1  0  0  0  0
 27 30  1  0  0  0  0
 29  3  2  0  0  0  0
 30 19  1  0  0  0  0
 30 49  1  6  0  0  0
 31 12  2  0  0  0  0
 38  4  1  0  0  0  0
 43 16  1  0  0  0  0
 47 28  1  0  0  0  0
 48 28  1  0  0  0  0
 50 35  1  0  0  0  0
 51 36  1  0  0  0  0
 52 44  1  0  0  0  0
M  END
