766
 OpenBabel10141417483D

 14 15  0  0  1  0  0  0  0  0999 V2000
   -1.1391   -0.7548    0.6130 O   0  0  0  0  0  0  0  0  0  0  0  0
    2.4777    0.9225    0.8957 O   0  0  0  0  0  0  0  0  0  0  0  0
   -0.3505    1.2412   -2.7506 O   0  0  0  0  0  0  0  0  0  0  0  0
   -1.6968    2.6973   -1.7505 O   0  0  0  0  0  0  0  0  0  0  0  0
   -3.3353    1.3624    3.2871 O   0  0  0  0  0  0  0  0  0  0  0  0
    0.7182    0.2515   -0.4976 N   0  0  0  0  0  0  0  0  0  0  0  0
    0.0815   -1.0167   -0.1186 C   0  0  1  0  0  0  0  0  0  0  0  0
   -0.2359    1.3291   -0.3193 C   0  0  2  0  0  0  0  0  0  0  0  0
    1.3522   -1.3530    0.6774 C   0  0  0  0  0  0  0  0  0  0  0  0
    1.7242    0.1111    0.4159 C   0  0  0  0  0  0  0  0  0  0  0  0
   -1.2996    0.6365    0.5210 C   0  0  0  0  0  0  0  0  0  0  0  0
   -0.8398    1.8310   -1.6367 C   0  0  0  0  0  0  0  0  0  0  0  0
   -2.2720    1.2635    1.2012 C   0  0  0  0  0  0  0  0  0  0  0  0
   -3.2707    0.6048    2.0890 C   0  0  0  0  0  0  0  0  0  0  0  0
  1 11  1  0  0  0  0
  2 10  2  0  0  0  0
  3 12  1  0  0  0  0
  4 12  2  0  0  0  0
  5 14  1  0  0  0  0
  6  7  1  0  0  0  0
  6  8  1  0  0  0  0
  6 10  1  0  0  0  0
  7  1  1  1  0  0  0
  7  9  1  0  0  0  0
  8 11  1  0  0  0  0
  8 12  1  6  0  0  0
  9 10  1  0  0  0  0
 11 13  2  0  0  0  0
 13 14  1  0  0  0  0
M  END
