1407
 OpenBabel10141417483D

 17 17  0  0  1  0  0  0  0  0999 V2000
    3.6743    1.3701    3.3275 Cl  0  0  0  0  0  0  0  0  0  0  0  0
    3.2755    1.8117   -2.0955 Cl  0  0  0  0  0  0  0  0  0  0  0  0
    5.0795   -3.0194   -1.0056 O   0  0  0  0  0  0  0  0  0  0  0  0
    7.7556   -3.4569    0.0325 N   0  0  0  0  0  0  0  0  0  0  0  0
    2.8698    2.7620    0.7544 N   0  0  0  0  0  0  0  0  0  0  0  0
    9.2347   -3.3526   -0.0130 C   0  0  0  0  0  0  0  0  0  0  0  0
    7.0522   -2.1591    0.1306 C   0  0  0  0  0  0  0  0  0  0  0  0
    5.5155   -2.3422    0.1750 C   0  0  3  0  0  0  0  0  0  0  0  0
    9.7111   -2.5417   -1.2299 C   0  0  0  0  0  0  0  0  0  0  0  0
    9.8074   -2.7462    1.2812 C   0  0  0  0  0  0  0  0  0  0  0  0
    9.7907   -4.7846   -0.1497 C   0  0  0  0  0  0  0  0  0  0  0  0
    4.8033   -1.0100    0.3064 C   0  0  0  0  0  0  0  0  0  0  0  0
    4.4000   -0.2715   -0.8122 C   0  0  0  0  0  0  0  0  0  0  0  0
    4.5735   -0.4652    1.5802 C   0  0  0  0  0  0  0  0  0  0  0  0
    3.9150    0.7638    1.7223 C   0  0  0  0  0  0  0  0  0  0  0  0
    3.7416    0.9565   -0.6642 C   0  0  0  0  0  0  0  0  0  0  0  0
    3.4367    1.4733    0.6096 C   0  0  0  0  0  0  0  0  0  0  0  0
  1 15  1  0  0  0  0
  2 16  1  0  0  0  0
  3  8  1  0  0  0  0
  4  6  1  0  0  0  0
  4  7  1  0  0  0  0
  5 17  1  0  0  0  0
  6  9  1  0  0  0  0
  6 10  1  0  0  0  0
  6 11  1  0  0  0  0
  7  8  1  0  0  0  0
  8 12  1  0  0  0  0
 12 13  2  0  0  0  0
 12 14  1  0  0  0  0
 13 16  1  0  0  0  0
 14 15  2  0  0  0  0
 15 17  1  0  0  0  0
 16 17  2  0  0  0  0
M  END
