
 OpenBabel10141417503D

 26 29  0  0  1  0  0  0  0  0999 V2000
    3.5778   -1.9333   -0.0023 N   0  3  2  0  0  0  0  0  0  0  0  0
    1.9274   -0.0239   -0.2116 C   0  0  3  0  0  0  0  0  0  0  0  0
    3.0387   -0.6521    0.6670 C   0  0  0  0  0  0  0  0  0  0  0  0
    1.6468   -0.9580   -1.4111 C   0  0  1  0  0  0  0  0  0  0  0  0
    4.0863   -1.5954   -1.4115 C   0  0  0  0  0  0  0  0  0  0  0  0
    2.4468   -2.9615   -0.0919 C   0  0  0  0  0  0  0  0  0  0  0  0
    2.9201   -1.0889   -2.2608 C   0  0  0  0  0  0  0  0  0  0  0  0
    1.2887   -2.3590   -0.8915 C   0  0  0  0  0  0  0  0  0  0  0  0
    4.7203   -2.4835    0.8385 C   0  0  0  0  0  0  0  0  0  0  0  0
    2.3247    1.2693   -0.7218 O   0  0  0  0  0  0  0  0  0  0  0  0
    2.6259    2.2161    0.2352 C   0  0  0  0  0  0  0  0  0  0  0  0
    3.1052    3.5521   -0.4157 C   0  0  0  0  0  0  0  0  0  0  0  0
    2.5309    1.9726    1.4377 O   0  0  0  0  0  0  0  0  0  0  0  0
    3.7913    3.1402   -1.6271 O   0  0  0  0  0  0  0  0  0  0  0  0
    1.9064    4.4271   -0.8198 C   0  0  0  0  0  0  0  0  0  0  0  0
    4.1640    4.2559    0.4518 C   0  0  0  0  0  0  0  0  0  0  0  0
    0.7214    4.4592   -0.0589 C   0  0  0  0  0  0  0  0  0  0  0  0
   -0.3460    5.2852   -0.4252 C   0  0  0  0  0  0  0  0  0  0  0  0
   -0.2425    6.1115   -1.5407 C   0  0  0  0  0  0  0  0  0  0  0  0
    1.9949    5.2878   -1.9325 C   0  0  0  0  0  0  0  0  0  0  0  0
    0.9302    6.1192   -2.2894 C   0  0  0  0  0  0  0  0  0  0  0  0
    5.3968    3.6225    0.7192 C   0  0  0  0  0  0  0  0  0  0  0  0
    6.3979    4.2582    1.4633 C   0  0  0  0  0  0  0  0  0  0  0  0
    3.9757    5.5449    0.9857 C   0  0  0  0  0  0  0  0  0  0  0  0
    6.1964    5.5464    1.9475 C   0  0  0  0  0  0  0  0  0  0  0  0
    4.9851    6.1872    1.7119 C   0  0  0  0  0  0  0  0  0  0  0  0
  1  3  1  0  0  0  0
  1  6  1  0  0  0  0
  1  9  1  1  0  0  0
  2 10  1  0  0  0  0
  3  2  1  0  0  0  0
  4  2  1  0  0  0  0
  4  7  1  6  0  0  0
  4  8  1  0  0  0  0
  5  7  1  0  0  0  0
  5  1  1  0  0  0  0
  6  8  1  0  0  0  0
 10 11  1  0  0  0  0
 11 12  1  0  0  0  0
 11 13  2  0  0  0  0
 12 14  1  0  0  0  0
 12 15  1  0  0  0  0
 12 16  1  0  0  0  0
 15 17  2  0  0  0  0
 16 22  1  0  0  0  0
 18 17  1  0  0  0  0
 19 18  2  0  0  0  0
 20 15  1  0  0  0  0
 21 19  1  0  0  0  0
 21 20  2  0  0  0  0
 23 22  2  0  0  0  0
 24 16  2  0  0  0  0
 25 23  1  0  0  0  0
 26 24  1  0  0  0  0
 26 25  2  0  0  0  0
M  CHG  1   1   1
M  END
