
 OpenBabel10141417533D

 34 36  0  0  0  0  0  0  0  0999 V2000
    3.0822  -10.0994    7.6660 C   0  0  0  0  0  0  0  0  0  0  0  0
    5.8864   -2.5377   -0.4729 C   0  0  0  0  0  0  0  0  0  0  0  0
    1.6701   -7.2614    7.3540 C   0  0  0  0  0  0  0  0  0  0  0  0
    2.9597   -4.1798    1.6440 C   0  0  0  0  0  0  0  0  0  0  0  0
    3.5725   -8.8447    7.0099 C   0  0  0  0  0  0  0  0  0  0  0  0
    5.0144   -2.9520    0.7131 C   0  0  0  0  0  0  0  0  0  0  0  0
   10.3914   -7.3307    3.3971 C   0  0  0  0  0  0  0  0  0  0  0  0
    9.3315   -8.4199    3.4335 C   0  0  0  0  0  0  0  0  0  0  0  0
    9.7604   -5.9462    3.4699 C   0  0  0  0  0  0  0  0  0  0  0  0
    6.6847   -7.0558   -1.4609 C   0  0  0  0  0  0  0  0  0  0  0  0
    7.3448   -7.2104   -0.2442 C   0  0  0  0  0  0  0  0  0  0  0  0
    5.5123   -6.2959   -1.5422 C   0  0  0  0  0  0  0  0  0  0  0  0
    6.2888   -5.3983    4.1413 C   0  0  0  0  0  0  0  0  0  0  0  0
    5.9966   -7.7299    3.9826 C   0  0  0  0  0  0  0  0  0  0  0  0
    5.3541   -5.3407    5.2158 C   0  0  0  0  0  0  0  0  0  0  0  0
    5.1171   -7.6606    5.0469 C   0  0  0  0  0  0  0  0  0  0  0  0
    8.3039   -8.2012    2.3312 C   0  0  0  0  0  0  0  0  0  0  0  0
    8.7387   -5.7169    2.3467 C   0  0  0  0  0  0  0  0  0  0  0  0
    5.6594   -5.8958    0.8134 C   0  0  0  0  0  0  0  0  0  0  0  0
    6.6399   -6.6115    3.5060 C   0  0  0  0  0  0  0  0  0  0  0  0
    6.8480   -6.6420    0.9365 C   0  0  0  0  0  0  0  0  0  0  0  0
    4.7506   -6.4978    5.7082 C   0  0  0  0  0  0  0  0  0  0  0  0
    5.0013   -5.6627   -0.4032 C   0  0  0  0  0  0  0  0  0  0  0  0
    3.5333   -7.2633    8.9955 C   0  0  0  0  0  0  0  0  0  0  0  0
    2.7714   -2.5885   -0.2874 C   0  0  0  0  0  0  0  0  0  0  0  0
    3.2008   -7.4428    7.4893 C   0  0  3  0  0  0  0  0  0  0  0  0
    3.6887   -3.6996    0.3625 C   0  0  3  0  0  0  0  0  0  0  0  0
    7.6048   -6.7801    2.3002 C   0  0  0  0  0  0  0  0  0  0  0  0
    2.8383   -6.6309    9.7838 O   0  0  0  0  0  0  0  0  0  0  0  0
    4.6630   -7.8672    9.4347 O   0  0  0  0  0  0  0  0  0  0  0  0
    3.0034   -2.0636   -1.3953 O   0  0  0  0  0  0  0  0  0  0  0  0
    1.7307   -2.1242    0.4448 O   0  0  0  0  0  0  0  0  0  0  0  0
    3.8777   -6.3644    6.7595 O   0  0  0  0  0  0  0  0  0  0  0  0
    3.9098   -4.8223   -0.5500 O   0  0  0  0  0  0  0  0  0  0  0  0
  5  1  1  0  0  0  0
  6  2  1  0  0  0  0
  8  7  1  0  0  0  0
  9  7  1  0  0  0  0
 11 10  2  0  0  0  0
 12 10  1  0  0  0  0
 15 13  1  0  0  0  0
 16 14  2  0  0  0  0
 17  8  1  0  0  0  0
 18  9  1  0  0  0  0
 20 13  2  0  0  0  0
 20 14  1  0  0  0  0
 21 11  1  0  0  0  0
 21 19  2  0  0  0  0
 22 15  2  0  0  0  0
 22 16  1  0  0  0  0
 23 12  2  0  0  0  0
 23 19  1  0  0  0  0
 26  3  1  0  0  0  0
 26  5  1  0  0  0  0
 26 24  1  0  0  0  0
 27  4  1  0  0  0  0
 27  6  1  0  0  0  0
 27 25  1  0  0  0  0
 28 17  1  0  0  0  0
 28 18  1  0  0  0  0
 28 20  1  0  0  0  0
 28 21  1  0  0  0  0
 29 24  2  0  0  0  0
 30 24  1  0  0  0  0
 31 25  2  0  0  0  0
 32 25  1  0  0  0  0
 33 22  1  0  0  0  0
 33 26  1  0  0  0  0
 34 23  1  0  0  0  0
 34 27  1  0  0  0  0
M  END
