
 OpenBabel10141417513D

 27 28  0  0  0  0  0  0  0  0999 V2000
    6.2448   -1.2625    3.5797 O   0  0  0  0  0  0  0  0  0  0  0  0
    7.3274   -1.8116    2.7921 C   0  0  1  0  0  0  0  0  0  0  0  0
    8.4247   -2.3949    3.7070 C   0  0  2  0  0  0  0  0  0  0  0  0
    9.5207   -2.9736    2.9842 O   0  0  0  0  0  0  0  0  0  0  0  0
    7.7992   -3.4233    4.6501 C   0  0  1  0  0  0  0  0  0  0  0  0
    8.8060   -3.8655    5.5773 O   0  0  0  0  0  0  0  0  0  0  0  0
    6.5918   -2.8315    5.3990 C   0  0  1  0  0  0  0  0  0  0  0  0
    7.0832   -1.8475    6.3277 O   0  0  0  0  0  0  0  0  0  0  0  0
    5.5515   -2.2098    4.4337 C   0  0  1  0  0  0  0  0  0  0  0  0
    6.7499   -3.0399    1.5484 S   0  0  0  0  0  0  0  0  0  0  0  0
    5.6729   -1.9731    0.5815 C   0  0  0  0  0  0  0  0  0  0  0  0
    2.4992   -1.9450    7.0557 C   0  0  0  0  0  0  0  0  0  0  0  0
    3.5731   -2.5190    6.1262 C   0  0  3  0  0  0  0  0  0  0  0  0
    2.7904   -3.8293    5.1660 Cl  0  0  0  0  0  0  0  0  0  0  0  0
    4.3176   -1.5159    5.1737 C   0  0  3  0  0  0  0  0  0  0  0  0
    3.3859   -0.8731    4.1972 N   0  0  0  0  0  0  0  0  0  0  0  0
    0.2570    0.3222    2.3298 C   0  0  0  0  0  0  0  0  0  0  0  0
    1.7689    2.0081    2.9813 C   0  0  0  0  0  0  0  0  0  0  0  0
    2.6084    0.8200    2.5271 C   0  0  2  0  0  0  0  0  0  0  0  0
    1.6175   -0.2382    2.1061 N   0  0  0  0  0  0  0  0  0  0  0  0
    1.7677   -0.5258    0.6657 C   0  0  0  0  0  0  0  0  0  0  0  0
    0.4265    1.4158    3.3813 C   0  0  1  0  0  0  0  0  0  0  0  0
   -0.7064    2.4596    3.3874 C   0  0  0  0  0  0  0  0  0  0  0  0
   -0.4595    3.6079    4.3776 C   0  0  0  0  0  0  0  0  0  0  0  0
   -1.5750    4.6450    4.3519 C   0  0  0  0  0  0  0  0  0  0  0  0
    3.5789    0.3658    3.6577 C   0  0  0  0  0  0  0  0  0  0  0  0
    4.4655    1.1380    4.0683 O   0  0  0  0  0  0  0  0  0  0  0  0
  1  2  1  0  0  0  0
  2 10  1  6  0  0  0
  3  2  1  0  0  0  0
  3  4  1  6  0  0  0
  5  3  1  0  0  0  0
  5  6  1  1  0  0  0
  7  5  1  0  0  0  0
  7  8  1  1  0  0  0
  9  1  1  1  0  0  0
  9  7  1  0  0  0  0
  9 15  1  0  0  0  0
 10 11  1  0  0  0  0
 13 12  1  0  0  0  0
 13 14  1  0  0  0  0
 15 13  1  0  0  0  0
 15 16  1  0  0  0  0
 16 26  1  0  0  0  0
 17 22  1  0  0  0  0
 18 19  1  0  0  0  0
 19 26  1  1  0  0  0
 20 17  1  0  0  0  0
 20 19  1  0  0  0  0
 20 21  1  0  0  0  0
 22 18  1  0  0  0  0
 22 23  1  6  0  0  0
 23 24  1  0  0  0  0
 24 25  1  0  0  0  0
 26 27  2  0  0  0  0
M  END
