
 OpenBabel10141417483D

 32 35  0  0  0  0  0  0  0  0999 V2000
   -0.1696   -1.7883    1.2075 C   0  0  1  0  0  0  0  0  0  0  0  0
    0.1436   -0.2755    0.9601 C   0  0  2  0  0  0  0  0  0  0  0  0
   -1.6666   -2.0160    1.5475 C   0  0  0  0  0  0  0  0  0  0  0  0
    0.5677   -2.1166    2.5479 C   0  0  0  0  0  0  0  0  0  0  0  0
   -0.9776    0.6825    0.4680 C   0  0  1  0  0  0  0  0  0  0  0  0
   -2.6900   -1.1327    0.8347 C   0  0  1  0  0  0  0  0  0  0  0  0
   -2.3635    0.3610    1.0554 C   0  0  2  0  0  0  0  0  0  0  0  0
   -0.5950    2.1217    0.8818 C   0  0  0  0  0  0  0  0  0  0  0  0
   -2.7664   -1.4667   -0.5437 O   0  0  0  0  0  0  0  0  0  0  0  0
   -3.4887    1.3734    0.5708 C   0  0  2  0  0  0  0  0  0  0  0  0
   -2.2535    0.5274    2.4239 F   0  0  0  0  0  0  0  0  0  0  0  0
   -1.5994    3.1509    0.3994 C   0  0  0  0  0  0  0  0  0  0  0  0
   -3.0361    2.8452    0.7915 C   0  0  0  0  0  0  0  0  0  0  0  0
   -3.8860    1.3017   -0.9092 C   0  0  0  0  0  0  0  0  0  0  0  0
   -4.7772    1.0792    1.3904 C   0  0  0  0  0  0  0  0  0  0  0  0
   -3.9210    3.8253    0.4877 C   0  0  0  0  0  0  0  0  0  0  0  0
   -4.2567    2.3881   -1.6133 C   0  0  0  0  0  0  0  0  0  0  0  0
   -4.3412    3.7309   -0.9634 C   0  0  0  0  0  0  0  0  0  0  0  0
   -4.7963    4.6989   -1.5582 O   0  0  0  0  0  0  0  0  0  0  0  0
    1.3567   -0.2893    0.0308 C   0  0  0  0  0  0  0  0  0  0  0  0
    1.1555   -1.4735   -0.9319 C   0  0  1  0  0  0  0  0  0  0  0  0
    0.4758   -2.6061   -0.0564 C   0  0  2  0  0  0  0  0  0  0  0  0
   -0.4580   -3.6207   -0.8384 C   0  0  0  0  0  0  0  0  0  0  0  0
    0.1113   -4.3906   -2.0226 C   0  0  0  0  0  0  0  0  0  0  0  0
   -1.5996   -3.9024   -0.4548 O   0  0  0  0  0  0  0  0  0  0  0  0
    0.5006   -0.9775   -2.2230 C   0  0  0  0  0  0  0  0  0  0  0  0
   -1.2233   -4.9566   -3.0806 Cl  0  0  0  0  0  0  0  0  0  0  0  0
    1.6760   -3.3793    0.3823 O   0  0  0  0  0  0  0  0  0  0  0  0
    1.5565   -4.5138    1.1355 C   0  0  0  0  0  0  0  0  0  0  0  0
    2.9922   -4.9609    1.5131 C   0  0  0  0  0  0  0  0  0  0  0  0
    3.0117   -6.4463    1.8606 C   0  0  0  0  0  0  0  0  0  0  0  0
    0.5430   -5.0186    1.5127 O   0  0  0  0  0  0  0  0  0  0  0  0
  1  3  1  0  0  0  0
  1  4  1  6  0  0  0
  1  2  1  0  0  0  0
  2  5  1  0  0  0  0
  2 20  1  6  0  0  0
  3  6  1  0  0  0  0
  5  7  1  0  0  0  0
  5  8  1  1  0  0  0
  6  7  1  0  0  0  0
  6  9  1  6  0  0  0
  7 10  1  0  0  0  0
  7 11  1  1  0  0  0
  8 12  1  0  0  0  0
 10 13  1  0  0  0  0
 10 14  1  0  0  0  0
 10 15  1  6  0  0  0
 12 13  1  0  0  0  0
 13 16  2  0  0  0  0
 14 17  2  0  0  0  0
 16 18  1  0  0  0  0
 17 18  1  0  0  0  0
 18 19  2  0  0  0  0
 21 20  1  0  0  0  0
 21 26  1  6  0  0  0
 22  1  1  0  0  0  0
 22 21  1  0  0  0  0
 22 28  1  1  0  0  0
 22 23  1  0  0  0  0
 23 24  1  0  0  0  0
 23 25  2  0  0  0  0
 24 27  1  0  0  0  0
 28 29  1  0  0  0  0
 29 30  1  0  0  0  0
 29 32  2  0  0  0  0
 30 31  1  0  0  0  0
M  END
