
 OpenBabel10141417503D

 28 31  0  0  1  0  0  0  0  0999 V2000
    1.2616   -1.4950   -5.4515 C   0  0  0  0  0  0  0  0  0  0  0  0
    1.0181   -0.0508   -5.2864 C   0  0  0  0  0  0  0  0  0  0  0  0
    1.6420    0.6099   -4.1229 C   0  0  0  0  0  0  0  0  0  0  0  0
    2.3640   -0.0701   -3.2127 C   0  0  0  0  0  0  0  0  0  0  0  0
    2.5994   -1.5939   -3.2793 C   0  0  2  0  0  0  0  0  0  0  0  0
    1.9771   -2.1842   -4.5525 C   0  0  0  0  0  0  0  0  0  0  0  0
    3.0410    0.6750   -2.0893 C   0  0  2  0  0  0  0  0  0  0  0  0
    4.5367    0.3692   -1.9865 C   0  0  0  0  0  0  0  0  0  0  0  0
    4.7876   -1.1490   -1.9471 C   0  0  2  0  0  0  0  0  0  0  0  0
    4.1692   -1.8758   -3.2055 C   0  0  2  0  0  0  0  0  0  0  0  0
    6.2613   -1.5873   -1.7670 C   0  0  1  0  0  0  0  0  0  0  0  0
    6.3156   -3.0815   -1.3232 C   0  0  1  0  0  0  0  0  0  0  0  0
    5.0866   -3.8875   -1.8373 C   0  0  0  0  0  0  0  0  0  0  0  0
    4.5455   -3.4100   -3.1909 C   0  0  2  0  0  0  0  0  0  0  0  0
    2.4630    0.3252   -0.9049 F   0  0  0  0  0  0  0  0  0  0  0  0
    4.9230   -1.1350   -4.7371 Cl  0  0  0  0  0  0  0  0  0  0  0  0
    7.6310   -3.7138   -1.8285 C   0  0  0  0  0  0  0  0  0  0  0  0
    1.8256   -2.2690   -2.1193 C   0  0  0  0  0  0  0  0  0  0  0  0
    0.3399    0.5779   -6.0864 O   0  0  0  0  0  0  0  0  0  0  0  0
    5.5297   -3.7805   -4.1623 O   0  0  0  0  0  0  0  0  0  0  0  0
    6.2745   -2.9837    0.2334 C   0  0  2  0  0  0  0  0  0  0  0  0
    6.9765   -1.6579    0.5968 C   0  0  1  0  0  0  0  0  0  0  0  0
    7.0838   -0.8545   -0.7017 C   0  0  0  0  0  0  0  0  0  0  0  0
    6.8799   -4.1871    0.9623 C   0  0  0  0  0  0  0  0  0  0  0  0
    5.9394   -5.3350    1.3002 C   0  0  0  0  0  0  0  0  0  0  0  0
    8.0628   -4.2316    1.3048 O   0  0  0  0  0  0  0  0  0  0  0  0
    5.1701   -5.0379    2.4510 O   0  0  0  0  0  0  0  0  0  0  0  0
    6.2117   -0.8930    1.6756 C   0  0  0  0  0  0  0  0  0  0  0  0
  1  2  1  0  0  0  0
  1  6  2  0  0  0  0
  2  3  1  0  0  0  0
  2 19  2  0  0  0  0
  3  4  2  0  0  0  0
  4  5  1  0  0  0  0
  4  7  1  0  0  0  0
  5  6  1  0  0  0  0
  5 10  1  0  0  0  0
  5 18  1  6  0  0  0
  7  8  1  0  0  0  0
  7 15  1  1  0  0  0
  9  8  1  1  0  0  0
  9 10  1  0  0  0  0
  9 11  1  0  0  0  0
 10 14  1  0  0  0  0
 10 16  1  1  0  0  0
 11 12  1  0  0  0  0
 11 23  1  6  0  0  0
 12 13  1  0  0  0  0
 12 17  1  6  0  0  0
 13 14  1  0  0  0  0
 14 20  1  6  0  0  0
 21 12  1  0  0  0  0
 21 24  1  1  0  0  0
 22 21  1  0  0  0  0
 22 28  1  1  0  0  0
 23 22  1  0  0  0  0
 24 25  1  0  0  0  0
 24 26  2  0  0  0  0
 25 27  1  0  0  0  0
M  END
