
 OpenBabel10141417523D

 34 38  0  0  0  0  0  0  0  0999 V2000
   -6.3241   -7.1715   -1.2235 C   0  0  0  0  0  0  0  0  0  0  0  0
    1.4832   -2.8917   10.1044 C   0  0  0  0  0  0  0  0  0  0  0  0
    0.4535   -3.8246   10.1003 C   0  0  0  0  0  0  0  0  0  0  0  0
   -5.8690   -7.8929    0.0362 C   0  0  0  0  0  0  0  0  0  0  0  0
   -5.5998   -5.8395   -1.3551 C   0  0  0  0  0  0  0  0  0  0  0  0
   -1.4119   -3.9700    6.2911 C   0  0  0  0  0  0  0  0  0  0  0  0
    2.3272   -2.7842    8.9989 C   0  0  0  0  0  0  0  0  0  0  0  0
    0.2561   -4.6268    8.9777 C   0  0  0  0  0  0  0  0  0  0  0  0
    3.0776   -3.4822    6.6996 C   0  0  0  0  0  0  0  0  0  0  0  0
    3.8055   -4.7966    6.4417 C   0  0  0  0  0  0  0  0  0  0  0  0
    3.7765   -6.9617    5.2460 C   0  0  0  0  0  0  0  0  0  0  0  0
    3.1884   -8.1043    4.7079 C   0  0  0  0  0  0  0  0  0  0  0  0
   -4.0493   -3.7100    1.9847 C   0  0  0  0  0  0  0  0  0  0  0  0
   -3.9462   -5.8553    3.1851 C   0  0  0  0  0  0  0  0  0  0  0  0
   -2.2589   -3.1721    5.2881 C   0  0  0  0  0  0  0  0  0  0  0  0
   -5.9881   -6.9898    1.2676 C   0  0  0  0  0  0  0  0  0  0  0  0
   -5.7091   -5.0013   -0.0743 C   0  0  0  0  0  0  0  0  0  0  0  0
   -0.0821   -4.4680    5.7070 C   0  0  0  0  0  0  0  0  0  0  0  0
   -3.4805   -3.0095    3.2219 C   0  0  0  0  0  0  0  0  0  0  0  0
   -3.3614   -5.1377    4.3950 C   0  0  0  0  0  0  0  0  0  0  0  0
    1.0444   -7.3137    5.4661 C   0  0  0  0  0  0  0  0  0  0  0  0
    2.1345   -3.5906    7.8636 C   0  0  0  0  0  0  0  0  0  0  0  0
    3.0105   -5.9630    5.8952 C   0  0  0  0  0  0  0  0  0  0  0  0
    1.8190   -8.2759    4.8217 C   0  0  0  0  0  0  0  0  0  0  0  0
    1.0665   -4.4971    7.8345 C   0  0  0  0  0  0  0  0  0  0  0  0
    1.6173   -6.1410    6.0122 C   0  0  0  0  0  0  0  0  0  0  0  0
   -6.1965   -4.5687    3.0576 C   0  0  0  0  0  0  0  0  0  0  0  0
   -4.8880   -4.9745    2.3224 C   0  0  0  0  0  0  0  0  0  0  0  0
    1.0773   -9.6890    4.1784 Cl  0  0  0  0  0  0  0  0  0  0  0  0
   -6.8883   -3.4931    2.8703 N   0  0  0  0  0  0  0  0  0  0  0  0
   -2.6654   -3.8954    4.0648 N   0  0  0  0  0  0  0  0  0  0  0  0
   -5.2045   -5.7593    1.0785 N   0  0  0  0  0  0  0  0  0  0  0  0
    0.7216   -5.2635    6.6925 N   0  0  0  0  0  0  0  0  0  0  0  0
   -6.7117   -5.4192    3.9589 O   0  0  0  0  0  0  0  0  0  0  0  0
  3  2  2  0  0  0  0
  4  1  1  0  0  0  0
  5  1  1  0  0  0  0
  7  2  1  0  0  0  0
  8  3  1  0  0  0  0
 10  9  1  0  0  0  0
 12 11  2  0  0  0  0
 15  6  1  0  0  0  0
 16  4  1  0  0  0  0
 17  5  1  0  0  0  0
 18  6  1  0  0  0  0
 19 13  1  0  0  0  0
 20 14  1  0  0  0  0
 22  7  2  0  0  0  0
 22  9  1  0  0  0  0
 23 10  1  0  0  0  0
 23 11  1  0  0  0  0
 24 12  1  0  0  0  0
 24 21  2  0  0  0  0
 25  8  2  0  0  0  0
 25 22  1  0  0  0  0
 26 21  1  0  0  0  0
 26 23  2  0  0  0  0
 28 13  1  0  0  0  0
 28 14  1  0  0  0  0
 28 27  1  0  0  0  0
 29 24  1  0  0  0  0
 30 27  2  0  0  0  0
 31 15  1  0  0  0  0
 31 19  1  0  0  0  0
 31 20  1  0  0  0  0
 32 16  1  0  0  0  0
 32 17  1  0  0  0  0
 32 28  1  0  0  0  0
 33 18  1  0  0  0  0
 33 25  1  0  0  0  0
 33 26  1  0  0  0  0
 34 27  1  0  0  0  0
M  END
