
 OpenBabel10141417483D

 33 37  0  0  0  0  0  0  0  0999 V2000
   -1.2686    0.9577   -0.0979 C   0  0  0  0  0  0  0  0  0  0  0  0
    0.0086    1.5839   -0.2045 N   0  0  0  0  0  0  0  0  0  0  0  0
   -1.3045   -0.5352   -0.1664 C   0  0  0  0  0  0  0  0  0  0  0  0
   -2.4889    1.5243    0.0257 C   0  0  0  0  0  0  0  0  0  0  0  0
   -0.2650   -1.3109   -0.2168 N   0  0  0  0  0  0  0  0  0  0  0  0
   -3.7819   -0.6456    0.0462 C   0  0  0  0  0  0  0  0  0  0  0  0
   -3.6739    0.7626    0.5114 C   0  0  0  0  0  0  0  0  0  0  0  0
   -2.6054   -1.2134   -0.2793 C   0  0  0  0  0  0  0  0  0  0  0  0
    1.1695    0.7000   -0.2166 C   0  0  0  0  0  0  0  0  0  0  0  0
    0.9870   -0.6972   -0.2060 C   0  0  0  0  0  0  0  0  0  0  0  0
   -4.4085    1.4357    1.3305 N   0  0  0  0  0  0  0  0  0  0  0  0
   -5.0125   -1.2636   -0.1268 N   0  0  0  0  0  0  0  0  0  0  0  0
    0.1309    3.0246   -0.1180 C   0  0  0  0  0  0  0  0  0  0  0  0
    0.9715    3.7461   -0.9893 C   0  0  0  0  0  0  0  0  0  0  0  0
   -0.5743    3.7748    0.8454 C   0  0  0  0  0  0  0  0  0  0  0  0
   -5.2600   -2.6468    0.0073 C   0  0  0  0  0  0  0  0  0  0  0  0
    0.3813    5.8453    0.0571 C   0  0  0  0  0  0  0  0  0  0  0  0
   -5.7537   -5.4017    0.2127 C   0  0  0  0  0  0  0  0  0  0  0  0
   -0.4873    5.1718    0.9058 C   0  0  0  0  0  0  0  0  0  0  0  0
    1.1285    5.1360   -0.8764 C   0  0  0  0  0  0  0  0  0  0  0  0
   -5.5269    0.9788    2.1285 C   0  0  0  0  0  0  0  0  0  0  0  0
    0.5349    7.5546    0.1671 Cl  0  0  0  0  0  0  0  0  0  0  0  0
   -6.0388   -7.0931    0.3317 Cl  0  0  0  0  0  0  0  0  0  0  0  0
   -6.2741   -3.2469   -0.7540 C   0  0  0  0  0  0  0  0  0  0  0  0
   -4.5263   -3.4464    0.8925 C   0  0  0  0  0  0  0  0  0  0  0  0
   -6.5181   -4.6224   -0.6533 C   0  0  0  0  0  0  0  0  0  0  0  0
   -4.7589   -4.8176    0.9888 C   0  0  0  0  0  0  0  0  0  0  0  0
    2.5027    1.1589   -0.1878 C   0  0  0  0  0  0  0  0  0  0  0  0
    2.0857   -1.5793   -0.1726 C   0  0  0  0  0  0  0  0  0  0  0  0
   -5.0286    0.5277    3.5073 C   0  0  0  0  0  0  0  0  0  0  0  0
   -6.4695    2.1671    2.2730 C   0  0  0  0  0  0  0  0  0  0  0  0
    3.5930    0.2754   -0.1966 C   0  0  0  0  0  0  0  0  0  0  0  0
    3.3861   -1.0958   -0.1805 C   0  0  0  0  0  0  0  0  0  0  0  0
  2  1  1  0  0  0  0
  3  1  1  0  0  0  0
  4  1  2  0  0  0  0
  5  3  2  0  0  0  0
  7  4  1  0  0  0  0
  7  6  1  0  0  0  0
  8  3  1  0  0  0  0
  8  6  2  0  0  0  0
  9  2  1  0  0  0  0
 10  5  1  0  0  0  0
 10  9  2  0  0  0  0
 11  7  2  3  0  0  0
 11 21  1  0  0  0  0
 12  6  1  0  0  0  0
 13  2  1  0  0  0  0
 14 13  2  0  0  0  0
 15 13  1  0  0  0  0
 16 12  1  0  0  0  0
 19 15  2  0  0  0  0
 19 17  1  0  0  0  0
 20 14  1  0  0  0  0
 20 17  2  0  0  0  0
 22 17  1  0  0  0  0
 23 18  1  0  0  0  0
 24 16  1  0  0  0  0
 25 16  2  0  0  0  0
 26 18  1  0  0  0  0
 26 24  2  0  0  0  0
 27 18  2  0  0  0  0
 27 25  1  0  0  0  0
 28  9  1  0  0  0  0
 29 10  1  0  0  0  0
 30 21  1  0  0  0  0
 31 21  1  0  0  0  0
 32 28  2  0  0  0  0
 33 29  2  0  0  0  0
 33 32  1  0  0  0  0
M  END
