4837
 OpenBabel10141417513D

 20 21  0  0  1  0  0  0  0  0999 V2000
    7.6680   -0.1409   -1.5448 Cl  0  0  0  0  0  0  0  0  0  0  0  0
    4.9455    1.2234   -0.9955 O   0  0  0  0  0  0  0  0  0  0  0  0
    2.7537    3.9787    1.4845 N   0  0  0  0  0  0  0  0  0  0  0  0
    5.6047    1.5341    0.2459 C   0  0  3  0  0  0  0  0  0  0  0  0
    4.4738    2.1331    1.1509 C   0  0  0  0  0  0  0  0  0  0  0  0
    3.7942    3.4070    0.5949 C   0  0  0  0  0  0  0  0  0  0  0  0
    6.2334    0.2190    0.7905 C   0  0  0  0  0  0  0  0  0  0  0  0
    6.6747    2.6215    0.0342 C   0  0  0  0  0  0  0  0  0  0  0  0
    7.1942   -0.5303    0.0721 C   0  0  0  0  0  0  0  0  0  0  0  0
    5.8893   -0.2715    2.0705 C   0  0  0  0  0  0  0  0  0  0  0  0
    7.4622    3.0536    1.1170 C   0  0  0  0  0  0  0  0  0  0  0  0
    6.8635    3.2463   -1.2113 C   0  0  0  0  0  0  0  0  0  0  0  0
    2.2206    5.2117    0.8882 C   0  0  0  0  0  0  0  0  0  0  0  0
    1.6445    3.0591    1.7397 C   0  0  0  0  0  0  0  0  0  0  0  0
    7.7944   -1.6770    0.6219 C   0  0  0  0  0  0  0  0  0  0  0  0
    6.4690   -1.4322    2.6029 C   0  0  0  0  0  0  0  0  0  0  0  0
    8.3967    4.0801    0.9633 C   0  0  0  0  0  0  0  0  0  0  0  0
    7.7996    4.2726   -1.3625 C   0  0  0  0  0  0  0  0  0  0  0  0
    7.4292   -2.1251    1.8877 C   0  0  0  0  0  0  0  0  0  0  0  0
    8.5613    4.6911   -0.2768 C   0  0  0  0  0  0  0  0  0  0  0  0
  1  9  1  0  0  0  0
  2  4  1  0  0  0  0
  3  6  1  0  0  0  0
  3 13  1  0  0  0  0
  3 14  1  0  0  0  0
  4  5  1  0  0  0  0
  4  7  1  0  0  0  0
  4  8  1  0  0  0  0
  5  6  1  0  0  0  0
  7  9  1  0  0  0  0
  7 10  2  0  0  0  0
  8 11  2  0  0  0  0
  8 12  1  0  0  0  0
  9 15  2  0  0  0  0
 10 16  1  0  0  0  0
 11 17  1  0  0  0  0
 12 18  2  0  0  0  0
 15 19  1  0  0  0  0
 16 19  2  0  0  0  0
 17 20  2  0  0  0  0
 18 20  1  0  0  0  0
M  END
