631
 OpenBabel10141417553D

 20 22  0  0  1  0  0  0  0  0999 V2000
    4.2338    1.8138   -0.8639 Cl  0  0  0  0  0  0  0  0  0  0  0  0
    5.1032   -3.3674   -2.6021 F   0  0  0  0  0  0  0  0  0  0  0  0
    5.1168   -4.7817    0.6257 O   0  0  0  0  0  0  0  0  0  0  0  0
    4.4628   -6.3561   -2.5540 O   0  0  0  0  0  0  0  0  0  0  0  0
    7.2435   -6.6807    0.0528 O   0  0  0  0  0  0  0  0  0  0  0  0
    6.1109   -2.7865   -0.1535 N   0  0  0  0  0  0  0  0  0  0  0  0
    8.2368   -2.1571    0.0758 N   0  0  0  0  0  0  0  0  0  0  0  0
    5.0685   -0.6161   -0.5245 N   0  0  0  0  0  0  0  0  0  0  0  0
    6.7181    1.1806   -0.4724 N   0  0  0  0  0  0  0  0  0  0  0  0
    9.0198    0.8287   -0.1339 N   0  0  0  0  0  0  0  0  0  0  0  0
    4.9253   -3.6181   -0.2125 C   0  0  1  0  0  0  0  0  0  0  0  0
    5.1481   -5.5086   -1.6370 C   0  0  1  0  0  0  0  0  0  0  0  0
    4.5665   -4.1125   -1.6075 C   0  0  2  0  0  0  0  0  0  0  0  0
    4.9348   -5.9549   -0.1972 C   0  0  1  0  0  0  0  0  0  0  0  0
    5.8842   -7.0679    0.2470 C   0  0  0  0  0  0  0  0  0  0  0  0
    6.1177   -1.4252   -0.3016 C   0  0  0  0  0  0  0  0  0  0  0  0
    7.4030   -3.1774    0.0750 C   0  0  0  0  0  0  0  0  0  0  0  0
    7.4450   -1.0554   -0.1633 C   0  0  0  0  0  0  0  0  0  0  0  0
    7.7351    0.3168   -0.2645 C   0  0  0  0  0  0  0  0  0  0  0  0
    5.4780    0.6675   -0.5991 C   0  0  0  0  0  0  0  0  0  0  0  0
  1 20  1  0  0  0  0
  3 11  1  0  0  0  0
  3 14  1  0  0  0  0
  5 15  1  0  0  0  0
  6 16  1  0  0  0  0
  6 17  1  0  0  0  0
  7 17  2  0  0  0  0
  7 18  1  0  0  0  0
  8 16  2  0  0  0  0
  8 20  1  0  0  0  0
  9 19  1  0  0  0  0
  9 20  2  0  0  0  0
 10 19  1  0  0  0  0
 11  6  1  6  0  0  0
 11 13  1  0  0  0  0
 12 13  1  0  0  0  0
 12 14  1  0  0  0  0
 12  4  1  6  0  0  0
 13  2  1  6  0  0  0
 14 15  1  1  0  0  0
 16 18  1  0  0  0  0
 18 19  2  0  0  0  0
M  END
