636
 OpenBabel10141417483D

 16 16  0  0  0  0  0  0  0  0999 V2000
    6.3539    3.8065    3.9223 Cl  0  0  0  0  0  0  0  0  0  0  0  0
    6.8195    0.1049   -0.6167 O   0  0  0  0  0  0  0  0  0  0  0  0
    9.3056    0.0488   -2.1407 O   0  0  0  0  0  0  0  0  0  0  0  0
   10.0554   -0.9019   -0.1928 O   0  0  0  0  0  0  0  0  0  0  0  0
    7.6716   -1.0393   -0.7600 C   0  0  0  0  0  0  0  0  0  0  0  0
    7.5036   -2.0387    0.3973 C   0  0  0  0  0  0  0  0  0  0  0  0
    7.1444   -1.7441   -2.0273 C   0  0  0  0  0  0  0  0  0  0  0  0
    9.1492   -0.6628   -0.9864 C   0  0  0  0  0  0  0  0  0  0  0  0
    6.8468    0.9346    0.4624 C   0  0  0  0  0  0  0  0  0  0  0  0
   10.5305    0.7824   -2.2733 C   0  0  0  0  0  0  0  0  0  0  0  0
    5.7468    1.7985    0.5268 C   0  0  0  0  0  0  0  0  0  0  0  0
    7.8176    1.0070    1.4582 C   0  0  0  0  0  0  0  0  0  0  0  0
    5.5912    2.6908    1.5894 C   0  0  0  0  0  0  0  0  0  0  0  0
    7.6634    1.8969    2.5319 C   0  0  0  0  0  0  0  0  0  0  0  0
   11.7091   -0.0906   -2.6600 C   0  0  0  0  0  0  0  0  0  0  0  0
    6.5484    2.7294    2.5959 C   0  0  0  0  0  0  0  0  0  0  0  0
  1 16  1  0  0  0  0
  2  5  1  0  0  0  0
  2  9  1  0  0  0  0
  3  8  1  0  0  0  0
  3 10  1  0  0  0  0
  4  8  2  0  0  0  0
  5  6  1  0  0  0  0
  5  7  1  0  0  0  0
  5  8  1  0  0  0  0
  9 11  2  0  0  0  0
  9 12  1  0  0  0  0
 10 15  1  0  0  0  0
 11 13  1  0  0  0  0
 12 14  2  0  0  0  0
 13 16  2  0  0  0  0
 14 16  1  0  0  0  0
M  END
