1242
 OpenBabel10141417543D

 22 24  0  0  0  0  0  0  0  0999 V2000
    1.0632    0.0266   -0.2504 Cl  0  0  0  0  0  0  0  0  0  0  0  0
    5.5564   -2.4479   -0.3066 N   0  0  0  0  0  0  0  0  0  0  0  0
    4.7014   -2.9515   -4.6036 N   0  0  0  0  0  0  0  0  0  0  0  0
    5.4799   -3.0662   -1.6533 C   0  0  0  0  0  0  0  0  0  0  0  0
    4.8732   -1.2244   -0.1704 C   0  0  0  0  0  0  0  0  0  0  0  0
    6.4409   -3.0251    0.6255 C   0  0  0  0  0  0  0  0  0  0  0  0
    7.0680   -0.0319    0.1284 C   0  0  0  0  0  0  0  0  0  0  0  0
    7.5725   -0.7953    1.3458 C   0  0  0  0  0  0  0  0  0  0  0  0
    5.5655   -0.0215    0.0562 C   0  0  0  0  0  0  0  0  0  0  0  0
    7.3659   -2.2965    1.3987 C   0  0  0  0  0  0  0  0  0  0  0  0
    6.1711   -2.1856   -2.7056 C   0  0  0  0  0  0  0  0  0  0  0  0
    6.0800   -2.7611   -4.1224 C   0  0  0  0  0  0  0  0  0  0  0  0
    3.4741   -1.1874   -0.2752 C   0  0  0  0  0  0  0  0  0  0  0  0
    6.3365   -4.4138    0.8691 C   0  0  0  0  0  0  0  0  0  0  0  0
    4.8581    1.1838    0.1719 C   0  0  0  0  0  0  0  0  0  0  0  0
    8.1705   -2.9811    2.3393 C   0  0  0  0  0  0  0  0  0  0  0  0
    2.7809    0.0110   -0.1441 C   0  0  0  0  0  0  0  0  0  0  0  0
    7.1283   -5.0734    1.8093 C   0  0  0  0  0  0  0  0  0  0  0  0
    3.4676    1.2022    0.0781 C   0  0  0  0  0  0  0  0  0  0  0  0
    8.0597   -4.3540    2.5396 C   0  0  0  0  0  0  0  0  0  0  0  0
    3.9700   -1.6833   -4.6840 C   0  0  0  0  0  0  0  0  0  0  0  0
    4.7080   -3.5999   -5.9175 C   0  0  0  0  0  0  0  0  0  0  0  0
  1 17  1  0  0  0  0
  2  4  1  0  0  0  0
  2  5  1  0  0  0  0
  2  6  1  0  0  0  0
  3 12  1  0  0  0  0
  3 21  1  0  0  0  0
  3 22  1  0  0  0  0
  4 11  1  0  0  0  0
  5  9  2  0  0  0  0
  5 13  1  0  0  0  0
  6 10  1  0  0  0  0
  6 14  2  0  0  0  0
  7  8  1  0  0  0  0
  7  9  1  0  0  0  0
  8 10  1  0  0  0  0
  9 15  1  0  0  0  0
 10 16  2  0  0  0  0
 11 12  1  0  0  0  0
 13 17  2  0  0  0  0
 14 18  1  0  0  0  0
 15 19  2  0  0  0  0
 16 20  1  0  0  0  0
 17 19  1  0  0  0  0
 18 20  2  0  0  0  0
M  END
