1068
 OpenBabel10141417503D

 22 24  0  0  0  0  0  0  0  0999 V2000
    5.9935    3.5519   -1.6347 Cl  0  0  0  0  0  0  0  0  0  0  0  0
    1.9614    4.7778    2.7772 O   0  0  0  0  0  0  0  0  0  0  0  0
    2.8119    3.4477   -5.4198 O   0  5  0  0  0  0  0  0  0  0  0  0
    2.7397    5.6318   -5.6231 O   0  0  0  0  0  0  0  0  0  0  0  0
    2.6296    5.2245    0.6799 N   0  0  0  0  0  0  0  0  0  0  0  0
    2.5368    2.2048    0.6320 N   0  0  0  0  0  0  0  0  0  0  0  0
    2.7778    4.5933   -4.9494 N   0  3  0  0  0  0  0  0  0  0  0  0
    2.8552    3.7159   -1.2845 C   0  0  0  0  0  0  0  0  0  0  0  0
    2.7479    4.9908   -0.6980 C   0  0  0  0  0  0  0  0  0  0  0  0
    3.1559    2.5061   -0.4597 C   0  0  0  0  0  0  0  0  0  0  0  0
    4.2294    1.5455   -0.9003 C   0  0  0  0  0  0  0  0  0  0  0  0
    2.8222    3.5813   -2.6829 C   0  0  0  0  0  0  0  0  0  0  0  0
    2.7536    6.1273   -1.5193 C   0  0  0  0  0  0  0  0  0  0  0  0
    1.4814    3.0774    1.1310 C   0  0  0  0  0  0  0  0  0  0  0  0
    2.7779    4.7277   -3.4871 C   0  0  0  0  0  0  0  0  0  0  0  0
    2.0683    4.3916    1.6144 C   0  0  0  0  0  0  0  0  0  0  0  0
    2.7673    6.0022   -2.9103 C   0  0  0  0  0  0  0  0  0  0  0  0
    5.4648    1.9149   -1.4569 C   0  0  0  0  0  0  0  0  0  0  0  0
    3.9692    0.1792   -0.6830 C   0  0  0  0  0  0  0  0  0  0  0  0
    6.3818    0.9265   -1.8428 C   0  0  0  0  0  0  0  0  0  0  0  0
    4.8982   -0.7974   -1.0467 C   0  0  0  0  0  0  0  0  0  0  0  0
    6.0989   -0.4243   -1.6404 C   0  0  0  0  0  0  0  0  0  0  0  0
  1 18  1  0  0  0  0
  2 16  2  0  0  0  0
  3  7  1  0  0  0  0
  4  7  2  0  0  0  0
  5  9  1  0  0  0  0
  5 16  1  0  0  0  0
  6 10  2  0  0  0  0
  6 14  1  0  0  0  0
  7 15  1  0  0  0  0
  8  9  2  0  0  0  0
  8 10  1  0  0  0  0
  8 12  1  0  0  0  0
  9 13  1  0  0  0  0
 10 11  1  0  0  0  0
 11 18  1  0  0  0  0
 11 19  2  0  0  0  0
 12 15  2  0  0  0  0
 13 17  2  0  0  0  0
 14 16  1  0  0  0  0
 15 17  1  0  0  0  0
 18 20  2  0  0  0  0
 19 21  1  0  0  0  0
 20 22  1  0  0  0  0
 21 22  2  0  0  0  0
M  CHG  2   3  -1   7   1
M  END
