
 OpenBabel10141417523D

 23 25  0  0  0  0  0  0  0  0999 V2000
   -1.5021   -0.2957    0.2821 C   0  0  0  0  0  0  0  0  0  0  0  0
    8.4327   -3.6799    0.7806 C   0  0  0  0  0  0  0  0  0  0  0  0
   -0.9527    0.7814   -0.4158 C   0  0  0  0  0  0  0  0  0  0  0  0
   -0.6705   -1.1815    0.9584 C   0  0  0  0  0  0  0  0  0  0  0  0
    7.9800   -2.2237    0.8557 C   0  0  0  0  0  0  0  0  0  0  0  0
    7.3492   -4.5875    0.2046 C   0  0  0  0  0  0  0  0  0  0  0  0
    0.4308    0.9668   -0.4390 C   0  0  0  0  0  0  0  0  0  0  0  0
    0.7113   -0.9958    0.9389 C   0  0  0  0  0  0  0  0  0  0  0  0
    3.6404    0.5743    2.5912 C   0  0  0  0  0  0  0  0  0  0  0  0
    3.3584    2.5382    1.2131 C   0  0  0  0  0  0  0  0  0  0  0  0
    4.0630    1.3811    3.6518 C   0  0  0  0  0  0  0  0  0  0  0  0
    3.7800    3.3455    2.2737 C   0  0  0  0  0  0  0  0  0  0  0  0
    6.5925   -2.0885    1.4851 C   0  0  0  0  0  0  0  0  0  0  0  0
    5.9983   -4.3432    0.8812 C   0  0  0  0  0  0  0  0  0  0  0  0
    5.1872   -2.4989   -0.5050 C   0  0  0  0  0  0  0  0  0  0  0  0
    4.5857   -1.0826   -0.5906 C   0  0  0  0  0  0  0  0  0  0  0  0
    1.2838    0.0775    0.2314 C   0  0  0  0  0  0  0  0  0  0  0  0
    3.2858    1.1425    1.3547 C   0  0  0  0  0  0  0  0  0  0  0  0
    4.1306    2.7605    3.4893 C   0  0  0  0  0  0  0  0  0  0  0  0
    2.7908    0.2817    0.1990 C   0  0  3  0  0  0  0  0  0  0  0  0
    4.6462    3.7546    4.7970 Cl  0  0  0  0  0  0  0  0  0  0  0  0
    5.5754   -2.9351    0.8527 N   0  0  0  0  0  0  0  0  0  0  0  0
    3.4125   -1.0082    0.2128 O   0  0  0  0  0  0  0  0  0  0  0  0
  3  1  2  0  0  0  0
  4  1  1  0  0  0  0
  5  2  1  0  0  0  0
  6  2  1  0  0  0  0
  7  3  1  0  0  0  0
  8  4  2  0  0  0  0
 11  9  1  0  0  0  0
 12 10  2  0  0  0  0
 13  5  1  0  0  0  0
 14  6  1  0  0  0  0
 16 15  1  0  0  0  0
 17  7  2  0  0  0  0
 17  8  1  0  0  0  0
 18  9  2  0  0  0  0
 18 10  1  0  0  0  0
 19 11  2  0  0  0  0
 19 12  1  0  0  0  0
 20 17  1  0  0  0  0
 20 18  1  0  0  0  0
 21 19  1  0  0  0  0
 22 13  1  0  0  0  0
 22 14  1  0  0  0  0
 22 15  1  0  0  0  0
 23 16  1  0  0  0  0
 23 20  1  0  0  0  0
M  END
