1559
 OpenBabel10141418083D

 21 23  0  0  0  0  0  0  0  0999 V2000
    6.6820    4.2013   -0.9172 Cl  0  0  0  0  0  0  0  0  0  0  0  0
    3.6611    6.4388    1.2312 S   0  0  0  0  0  0  0  0  0  0  0  0
    0.5685    3.9995   -1.7656 O   0  0  0  0  0  0  0  0  0  0  0  0
    2.1885    5.1202   -0.5544 N   0  0  0  0  0  0  0  0  0  0  0  0
    2.9002    2.0896   -0.3283 N   0  0  0  0  0  0  0  0  0  0  0  0
    4.0063    3.9361    0.7531 C   0  0  0  0  0  0  0  0  0  0  0  0
    3.2180    5.0182    0.3903 C   0  0  0  0  0  0  0  0  0  0  0  0
    3.9966    2.6505    0.0571 C   0  0  0  0  0  0  0  0  0  0  0  0
    4.8377    5.6261    2.1574 C   0  0  0  0  0  0  0  0  0  0  0  0
    4.8755    4.2834    1.8485 C   0  0  0  0  0  0  0  0  0  0  0  0
    5.7019    6.3820    3.1204 C   0  0  0  0  0  0  0  0  0  0  0  0
    1.6266    2.7402   -0.0320 C   0  0  0  0  0  0  0  0  0  0  0  0
    1.4333    3.9883   -0.8868 C   0  0  0  0  0  0  0  0  0  0  0  0
    5.2827    1.9214   -0.1875 C   0  0  0  0  0  0  0  0  0  0  0  0
    1.8061    6.3782   -1.1893 C   0  0  0  0  0  0  0  0  0  0  0  0
    6.9825    6.8622    2.4489 C   0  0  0  0  0  0  0  0  0  0  0  0
    6.4997    2.5222   -0.5465 C   0  0  0  0  0  0  0  0  0  0  0  0
    5.2314    0.5180   -0.0770 C   0  0  0  0  0  0  0  0  0  0  0  0
    7.6485    1.7331   -0.7071 C   0  0  0  0  0  0  0  0  0  0  0  0
    6.3725   -0.2629   -0.2704 C   0  0  0  0  0  0  0  0  0  0  0  0
    7.5861    0.3469   -0.5666 C   0  0  0  0  0  0  0  0  0  0  0  0
  1 17  1  0  0  0  0
  2  7  1  0  0  0  0
  2  9  1  0  0  0  0
  3 13  2  0  0  0  0
  4  7  1  0  0  0  0
  4 13  1  0  0  0  0
  4 15  1  0  0  0  0
  5  8  2  0  0  0  0
  5 12  1  0  0  0  0
  6  7  2  0  0  0  0
  6  8  1  0  0  0  0
  6 10  1  0  0  0  0
  8 14  1  0  0  0  0
  9 10  2  0  0  0  0
  9 11  1  0  0  0  0
 11 16  1  0  0  0  0
 12 13  1  0  0  0  0
 14 17  1  0  0  0  0
 14 18  2  0  0  0  0
 17 19  2  0  0  0  0
 18 20  1  0  0  0  0
 19 21  1  0  0  0  0
 20 21  2  0  0  0  0
M  END
