257
 OpenBabel10141417523D

 25 28  0  0  0  0  0  0  0  0999 V2000
    1.3920   -0.3991    1.6887 Cl  0  0  0  0  0  0  0  0  0  0  0  0
    1.5895    2.0756   -1.1067 N   0  0  0  0  0  0  0  0  0  0  0  0
    0.9164    1.9757   -3.2422 N   0  0  0  0  0  0  0  0  0  0  0  0
    2.4980    2.3252    0.0816 C   0  0  0  0  0  0  0  0  0  0  0  0
    3.3299    0.9723    0.2120 C   0  0  0  0  0  0  0  0  0  0  0  0
    1.6817    2.7373    1.3885 C   0  0  0  0  0  0  0  0  0  0  0  0
    3.4866    3.5866   -0.1776 C   0  0  0  0  0  0  0  0  0  0  0  0
    2.9214   -0.1938    0.9049 C   0  0  0  0  0  0  0  0  0  0  0  0
    4.5555    0.8588   -0.5018 C   0  0  0  0  0  0  0  0  0  0  0  0
    2.1715    2.4809    2.6946 C   0  0  0  0  0  0  0  0  0  0  0  0
    4.5486    3.8434    0.7256 C   0  0  0  0  0  0  0  0  0  0  0  0
    0.4813    3.4778    1.3184 C   0  0  0  0  0  0  0  0  0  0  0  0
    3.3820    4.4906   -1.2601 C   0  0  0  0  0  0  0  0  0  0  0  0
    0.3032    1.5721   -1.1286 C   0  0  0  0  0  0  0  0  0  0  0  0
    1.9303    2.1517   -2.4410 C   0  0  0  0  0  0  0  0  0  0  0  0
   -0.1081    1.5916   -2.4307 C   0  0  0  0  0  0  0  0  0  0  0  0
    3.7499   -1.3336    0.9709 C   0  0  0  0  0  0  0  0  0  0  0  0
    5.3598   -0.2876   -0.4527 C   0  0  0  0  0  0  0  0  0  0  0  0
    1.4977    2.9203    3.8460 C   0  0  0  0  0  0  0  0  0  0  0  0
    5.4501    4.9052    0.5391 C   0  0  0  0  0  0  0  0  0  0  0  0
   -0.2099    3.8862    2.4702 C   0  0  0  0  0  0  0  0  0  0  0  0
    4.3332    5.4993   -1.4909 C   0  0  0  0  0  0  0  0  0  0  0  0
    4.9658   -1.3805    0.2998 C   0  0  0  0  0  0  0  0  0  0  0  0
    0.3076    3.6269    3.7334 C   0  0  0  0  0  0  0  0  0  0  0  0
    5.3577    5.7192   -0.5826 C   0  0  0  0  0  0  0  0  0  0  0  0
  1  8  1  0  0  0  0
  2  4  1  0  0  0  0
  2 14  1  0  0  0  0
  2 15  1  0  0  0  0
  3 15  2  0  0  0  0
  3 16  1  0  0  0  0
  4  5  1  0  0  0  0
  4  6  1  0  0  0  0
  4  7  1  0  0  0  0
  5  8  1  0  0  0  0
  5  9  2  0  0  0  0
  6 10  2  0  0  0  0
  6 12  1  0  0  0  0
  7 11  2  0  0  0  0
  7 13  1  0  0  0  0
  8 17  2  0  0  0  0
  9 18  1  0  0  0  0
 10 19  1  0  0  0  0
 11 20  1  0  0  0  0
 12 21  2  0  0  0  0
 13 22  2  0  0  0  0
 14 16  2  0  0  0  0
 17 23  1  0  0  0  0
 18 23  2  0  0  0  0
 19 24  2  0  0  0  0
 20 25  2  0  0  0  0
 21 24  1  0  0  0  0
 22 25  1  0  0  0  0
M  END
