1553
 OpenBabel10141418083D

 23 26  0  0  1  0  0  0  0  0999 V2000
    2.6491   -1.4368   -0.3253 Cl  0  0  0  0  0  0  0  0  0  0  0  0
    0.8436    6.3585    1.1736 Cl  0  0  0  0  0  0  0  0  0  0  0  0
    1.2517    1.4384   -0.0375 O   0  0  0  0  0  0  0  0  0  0  0  0
    2.5519    3.0564   -4.6877 O   0  0  0  0  0  0  0  0  0  0  0  0
    2.1757    1.0503   -2.1077 N   0  0  3  0  0  0  0  0  0  0  0  0
    3.9454    3.3738   -2.8681 N   0  0  0  0  0  0  0  0  0  0  0  0
    2.4223    1.7462   -0.8377 C   0  0  3  0  0  0  0  0  0  0  0  0
    0.7564    1.2084   -2.3531 C   0  0  0  0  0  0  0  0  0  0  0  0
    2.4342    3.3071   -0.9266 C   0  0  0  0  0  0  0  0  0  0  0  0
    0.2111    1.0292   -0.9468 C   0  0  0  0  0  0  0  0  0  0  0  0
    3.0559    1.1692   -3.2561 C   0  0  0  0  0  0  0  0  0  0  0  0
    3.6313    1.1562   -0.0747 C   0  0  0  0  0  0  0  0  0  0  0  0
    3.1541    4.0313   -1.9010 C   0  0  0  0  0  0  0  0  0  0  0  0
    3.1740    2.6039   -3.7327 C   0  0  0  0  0  0  0  0  0  0  0  0
    1.7320    4.0757    0.0338 C   0  0  0  0  0  0  0  0  0  0  0  0
    3.7859   -0.2281    0.1731 C   0  0  0  0  0  0  0  0  0  0  0  0
    4.6455    2.0001    0.4438 C   0  0  0  0  0  0  0  0  0  0  0  0
    3.1412    5.4299   -1.9473 C   0  0  0  0  0  0  0  0  0  0  0  0
    1.7216    5.4724   -0.0113 C   0  0  0  0  0  0  0  0  0  0  0  0
    2.4189    6.1523   -1.0024 C   0  0  0  0  0  0  0  0  0  0  0  0
    4.9043   -0.7231    0.8653 C   0  0  0  0  0  0  0  0  0  0  0  0
    5.7550    1.4999    1.1342 C   0  0  0  0  0  0  0  0  0  0  0  0
    5.8880    0.1362    1.3409 C   0  0  0  0  0  0  0  0  0  0  0  0
  1 16  1  0  0  0  0
  2 19  1  0  0  0  0
  3  7  1  0  0  0  0
  3 10  1  0  0  0  0
  4 14  2  0  0  0  0
  5  7  1  0  0  0  0
  5  8  1  0  0  0  0
  5 11  1  0  0  0  0
  6 13  1  0  0  0  0
  6 14  1  0  0  0  0
  7  9  1  0  0  0  0
  7 12  1  0  0  0  0
  8 10  1  0  0  0  0
  9 13  2  0  0  0  0
  9 15  1  0  0  0  0
 11 14  1  0  0  0  0
 12 16  1  0  0  0  0
 12 17  2  0  0  0  0
 13 18  1  0  0  0  0
 15 19  2  0  0  0  0
 16 21  2  0  0  0  0
 17 22  1  0  0  0  0
 18 20  2  0  0  0  0
 19 20  1  0  0  0  0
 21 23  1  0  0  0  0
 22 23  2  0  0  0  0
M  END
