
 OpenBabel10141417503D

 23 26  0  0  0  0  0  0  0  0999 V2000
   -1.3894    1.7235    0.4147 C   0  0  0  0  0  0  0  0  0  0  0  0
   -1.9651    0.3386    0.3420 C   0  0  0  0  0  0  0  0  0  0  0  0
   -1.4738   -0.6345   -0.5359 C   0  0  0  0  0  0  0  0  0  0  0  0
   -0.2731   -0.4869   -1.2610 N   0  0  0  0  0  0  0  0  0  0  0  0
   -0.1180    2.0064    0.3838 N   0  0  0  0  0  0  0  0  0  0  0  0
    0.9129   -0.0154   -0.6490 C   0  0  0  0  0  0  0  0  0  0  0  0
    0.9340    1.0996    0.2116 C   0  0  0  0  0  0  0  0  0  0  0  0
   -2.1760   -1.8500   -0.6479 C   0  0  0  0  0  0  0  0  0  0  0  0
   -3.3146   -2.1052    0.1203 C   0  0  0  0  0  0  0  0  0  0  0  0
   -3.7716   -1.1496    1.0193 C   0  0  0  0  0  0  0  0  0  0  0  0
   -3.1021    0.0678    1.1275 C   0  0  0  0  0  0  0  0  0  0  0  0
    2.1383    1.4515    0.8393 C   0  0  0  0  0  0  0  0  0  0  0  0
    3.2999    0.7149    0.6288 C   0  0  0  0  0  0  0  0  0  0  0  0
    3.2901   -0.3778   -0.2281 C   0  0  0  0  0  0  0  0  0  0  0  0
    2.1026   -0.7384   -0.8657 C   0  0  0  0  0  0  0  0  0  0  0  0
   -2.2973    2.7896    0.5600 N   0  0  0  0  0  0  0  0  0  0  0  0
   -3.3642    2.9507   -0.4547 C   0  0  0  0  0  0  0  0  0  0  0  0
   -2.8798    3.8273   -1.6346 C   0  0  0  0  0  0  0  0  0  0  0  0
   -2.3432    5.1543   -1.2560 N   0  0  0  0  0  0  0  0  0  0  0  0
   -1.3262    4.9712   -0.1911 C   0  0  0  0  0  0  0  0  0  0  0  0
   -1.7825    4.1042    1.0060 C   0  0  0  0  0  0  0  0  0  0  0  0
    4.7607    1.1700    1.4160 Cl  0  0  0  0  0  0  0  0  0  0  0  0
   -3.4007    6.0727   -0.8436 C   0  0  0  0  0  0  0  0  0  0  0  0
  1  5  2  0  0  0  0
  1  2  1  0  0  0  0
  1 16  1  0  0  0  0
  2  3  1  0  0  0  0
  2 11  2  0  0  0  0
  3  4  1  0  0  0  0
  3  8  2  0  0  0  0
  4  6  1  0  0  0  0
  5  7  1  0  0  0  0
  6  7  1  0  0  0  0
  6 15  2  0  0  0  0
  7 12  2  0  0  0  0
  8  9  1  0  0  0  0
  9 10  2  0  0  0  0
 10 11  1  0  0  0  0
 12 13  1  0  0  0  0
 13 14  2  0  0  0  0
 13 22  1  0  0  0  0
 14 15  1  0  0  0  0
 16 17  1  0  0  0  0
 16 21  1  0  0  0  0
 17 18  1  0  0  0  0
 18 19  1  0  0  0  0
 19 20  1  0  0  0  0
 19 23  1  0  0  0  0
 20 21  1  0  0  0  0
M  END
