
 OpenBabel10141417513D

 22 24  0  0  0  0  0  0  0  0999 V2000
   -1.3899   -0.8344    1.0725 C   0  0  0  0  0  0  0  0  0  0  0  0
   -1.4052    0.6927    1.1759 C   0  0  0  0  0  0  0  0  0  0  0  0
    0.6878    1.2942   -0.1408 C   0  0  0  0  0  0  0  0  0  0  0  0
   -1.1412    0.0851   -1.0977 N   0  0  0  0  0  0  0  0  0  0  0  0
   -2.4986    0.1211   -1.6229 C   0  0  0  0  0  0  0  0  0  0  0  0
    1.3789   -0.0147    0.2729 C   0  0  1  0  0  0  0  0  0  0  0  0
    0.7093   -1.2756   -0.3075 C   0  0  2  0  0  0  0  0  0  0  0  0
    1.6195   -0.8863   -2.5504 O   0  0  0  0  0  0  0  0  0  0  0  0
    1.1925   -1.6530   -1.7004 C   0  0  0  0  0  0  0  0  0  0  0  0
    1.0641   -3.0065   -1.8632 O   0  0  0  0  0  0  0  0  0  0  0  0
    1.4259   -3.5441   -3.1399 C   0  0  0  0  0  0  0  0  0  0  0  0
    2.7603    0.1132   -0.0688 O   0  0  0  0  0  0  0  0  0  0  0  0
    3.4241   -1.3465    1.5630 O   0  0  0  0  0  0  0  0  0  0  0  0
    3.6707   -0.5652    0.6706 C   0  0  0  0  0  0  0  0  0  0  0  0
    5.0374   -0.1684    0.2409 C   0  0  0  0  0  0  0  0  0  0  0  0
    7.4364   -0.4079    0.4953 C   0  0  0  0  0  0  0  0  0  0  0  0
    7.6429    0.5372   -0.5106 C   0  0  0  0  0  0  0  0  0  0  0  0
    6.5537    1.1357   -1.1408 C   0  0  0  0  0  0  0  0  0  0  0  0
    5.2552    0.7858   -0.7693 C   0  0  0  0  0  0  0  0  0  0  0  0
    6.1395   -0.7592    0.8713 C   0  0  0  0  0  0  0  0  0  0  0  0
   -0.8290   -1.1319   -0.3264 C   0  0  1  0  0  0  0  0  0  0  0  0
   -0.8419    1.1759   -0.1616 C   0  0  1  0  0  0  0  0  0  0  0  0
  1  2  1  0  0  0  0
  3  6  1  0  0  0  0
  4  5  1  0  0  0  0
  6  7  1  0  0  0  0
  6 12  1  6  0  0  0
  7 21  1  0  0  0  0
  7  9  1  6  0  0  0
  9  8  2  0  0  0  0
  9 10  1  0  0  0  0
 10 11  1  0  0  0  0
 12 14  1  0  0  0  0
 14 13  2  0  0  0  0
 14 15  1  0  0  0  0
 15 20  1  0  0  0  0
 16 17  1  0  0  0  0
 17 18  2  0  0  0  0
 18 19  1  0  0  0  0
 19 15  2  0  0  0  0
 20 16  2  0  0  0  0
 21  1  1  1  0  0  0
 21  4  1  0  0  0  0
 22  2  1  1  0  0  0
 22  3  1  0  0  0  0
 22  4  1  0  0  0  0
M  END
