318
 OpenBabel10141417523D

 22 26  0  0  1  0  0  0  0  0999 V2000
   -5.3122   -0.2899    6.1331 O   0  0  0  0  0  0  0  0  0  0  0  0
   -7.5773   -2.2325    4.3117 O   0  0  0  0  0  0  0  0  0  0  0  0
   -5.4351    1.3562    8.4333 O   0  0  0  0  0  0  0  0  0  0  0  0
   -2.5975   -4.9998    6.1882 N   0  0  0  0  0  0  0  0  0  0  0  0
   -4.4865   -2.5524    5.9947 C   0  0  1  0  0  0  0  0  0  0  0  0
   -4.8855   -4.0034    6.1758 C   0  0  2  0  0  0  0  0  0  0  0  0
   -3.6629   -4.4783    7.0563 C   0  0  1  0  0  0  0  0  0  0  0  0
   -5.5169   -1.5693    5.4243 C   0  0  2  0  0  0  0  0  0  0  0  0
   -3.0892   -2.5694    5.2428 C   0  0  0  0  0  0  0  0  0  0  0  0
   -4.4582   -1.9736    7.4133 C   0  0  0  0  0  0  0  0  0  0  0  0
   -3.9126   -4.1934    8.5588 C   0  0  0  0  0  0  0  0  0  0  0  0
   -2.4825   -4.0466    5.0160 C   0  0  0  0  0  0  0  0  0  0  0  0
   -4.2305   -2.6780    8.6208 C   0  0  0  0  0  0  0  0  0  0  0  0
   -7.0028   -2.0165    5.6065 C   0  0  2  0  0  0  0  0  0  0  0  0
   -6.2956   -4.1912    6.6676 C   0  0  0  0  0  0  0  0  0  0  0  0
   -4.9033   -0.6702    7.3910 C   0  0  0  0  0  0  0  0  0  0  0  0
   -7.2461   -3.2842    6.3894 C   0  0  0  0  0  0  0  0  0  0  0  0
   -2.8179   -6.3769    5.7778 C   0  0  0  0  0  0  0  0  0  0  0  0
   -4.3419   -1.9572    9.8048 C   0  0  0  0  0  0  0  0  0  0  0  0
   -5.0033    0.0671    8.5583 C   0  0  0  0  0  0  0  0  0  0  0  0
   -4.7043   -0.5898    9.7680 C   0  0  0  0  0  0  0  0  0  0  0  0
   -5.3723    2.1690    9.5966 C   0  0  0  0  0  0  0  0  0  0  0  0
  1 16  1  0  0  0  0
  3 22  1  0  0  0  0
  3 20  1  0  0  0  0
  4 12  1  0  0  0  0
  4 18  1  0  0  0  0
  5  6  1  0  0  0  0
  5  8  1  0  0  0  0
  5  9  1  1  0  0  0
  5 10  1  0  0  0  0
  6  7  1  0  0  0  0
  6 15  1  6  0  0  0
  7  4  1  1  0  0  0
  7 11  1  0  0  0  0
  8  1  1  6  0  0  0
  8 14  1  0  0  0  0
  9 12  1  0  0  0  0
 10 13  2  0  0  0  0
 10 16  1  0  0  0  0
 11 13  1  0  0  0  0
 13 19  1  0  0  0  0
 14 17  1  0  0  0  0
 14  2  1  6  0  0  0
 15 17  2  0  0  0  0
 16 20  2  0  0  0  0
 19 21  2  0  0  0  0
 20 21  1  0  0  0  0
M  END
