
 OpenBabel10141417533D

 29 31  0  0  1  0  0  0  0  0999 V2000
    1.9619   -0.1107    2.5438 C   0  0  0  0  0  0  0  0  0  0  0  0
    3.1780   -0.3449    1.6504 C   0  0  0  0  0  0  0  0  0  0  0  0
    3.2419   -1.2997    0.5903 C   0  0  0  0  0  0  0  0  0  0  0  0
    0.7116    0.4214    1.8266 C   0  0  0  0  0  0  0  0  0  0  0  0
    0.7758   -1.9175    0.9510 C   0  0  0  0  0  0  0  0  0  0  0  0
    0.0466   -0.5781    0.8652 C   0  0  3  0  0  0  0  0  0  0  0  0
    4.4978   -1.4908   -0.0399 C   0  0  0  0  0  0  0  0  0  0  0  0
    5.5880   -0.6133    0.2207 C   0  0  0  0  0  0  0  0  0  0  0  0
    5.4748    0.3888    1.1997 C   0  0  0  0  0  0  0  0  0  0  0  0
    4.2952    0.4656    1.9368 C   0  0  0  0  0  0  0  0  0  0  0  0
    4.7346   -2.4509   -1.0077 O   0  0  0  0  0  0  0  0  0  0  0  0
    6.6813   -0.7999   -0.5971 O   0  0  0  0  0  0  0  0  0  0  0  0
    6.4649    1.3294    1.3161 O   0  0  0  0  0  0  0  0  0  0  0  0
    1.9854   -1.9955    0.1521 C   0  0  0  0  0  0  0  0  0  0  0  0
    1.7578   -2.5276   -1.0782 C   0  0  0  0  0  0  0  0  0  0  0  0
    0.5147   -3.1471   -1.5853 C   0  0  0  0  0  0  0  0  0  0  0  0
   -0.6452   -3.5218   -0.9794 C   0  0  0  0  0  0  0  0  0  0  0  0
   -0.9167   -3.3489    0.5167 C   0  0  0  0  0  0  0  0  0  0  0  0
    0.2728   -3.0989    1.3427 C   0  0  0  0  0  0  0  0  0  0  0  0
    6.6866    1.9227    2.5928 C   0  0  0  0  0  0  0  0  0  0  0  0
    7.9596   -0.4701   -0.0721 C   0  0  0  0  0  0  0  0  0  0  0  0
    4.4586   -3.8045   -0.6338 C   0  0  0  0  0  0  0  0  0  0  0  0
   -2.0081   -3.4371    1.0674 O   0  0  0  0  0  0  0  0  0  0  0  0
   -1.6523   -4.0083   -1.8132 O   0  0  0  0  0  0  0  0  0  0  0  0
   -2.5116   -4.9934   -1.2454 C   0  0  0  0  0  0  0  0  0  0  0  0
    0.0658   -0.0744   -0.5118 N   0  0  0  0  0  0  0  0  0  0  0  0
   -0.9226    0.6772   -1.0841 C   0  0  0  0  0  0  0  0  0  0  0  0
   -0.6693    1.0202   -2.5268 C   0  0  0  0  0  0  0  0  0  0  0  0
   -1.9517    1.0209   -0.4954 O   0  0  0  0  0  0  0  0  0  0  0  0
  1  4  1  0  0  0  0
  1  2  1  0  0  0  0
  2  3  2  0  0  0  0
  2 10  1  0  0  0  0
  3  7  1  0  0  0  0
  3 14  1  0  0  0  0
  4  6  1  0  0  0  0
  5  6  1  0  0  0  0
  5 19  2  0  0  0  0
  6 26  1  0  0  0  0
  7  8  2  0  0  0  0
  7 11  1  0  0  0  0
  8  9  1  0  0  0  0
  8 12  1  0  0  0  0
  9 10  2  0  0  0  0
  9 13  1  0  0  0  0
 11 22  1  0  0  0  0
 12 21  1  0  0  0  0
 13 20  1  0  0  0  0
 14 15  2  0  0  0  0
 14  5  1  0  0  0  0
 15 16  1  0  0  0  0
 16 17  2  0  0  0  0
 17 18  1  0  0  0  0
 17 24  1  0  0  0  0
 18 19  1  0  0  0  0
 18 23  2  0  0  0  0
 24 25  1  0  0  0  0
 26 27  1  0  0  0  0
 27 28  1  0  0  0  0
 27 29  2  0  0  0  0
M  END
