375
 OpenBabel10141419033D

 18 17  0  0  1  0  0  0  0  0999 V2000
    5.9436    5.8935    0.9716 Cl  0  0  0  0  0  0  0  0  0  0  0  0
    5.4873    5.2820   -2.9555 O   0  0  0  0  0  0  0  0  0  0  0  0
    1.3337   -0.2050    1.0376 N   0  0  0  0  0  0  0  0  0  0  0  0
   -0.6360   -0.7107   -1.5196 N   0  0  0  0  0  0  0  0  0  0  0  0
    0.1369   -0.9968    3.9389 N   0  0  0  0  0  0  0  0  0  0  0  0
   -3.8477   -0.2535   -3.5446 N   0  0  0  0  0  0  0  0  0  0  0  0
   -1.6309   -4.3420    3.8797 N   0  0  0  0  0  0  0  0  0  0  0  0
    5.7607    5.0740   -1.5678 C   0  0  3  0  0  0  0  0  0  0  0  0
    4.6133    4.4007   -2.2545 C   0  0  0  0  0  0  0  0  0  0  0  0
    5.5688    6.2867   -0.7197 C   0  0  0  0  0  0  0  0  0  0  0  0
   -0.0658   -0.6321    0.9593 C   0  0  0  0  0  0  0  0  0  0  0  0
    2.0423   -0.8195    2.1851 C   0  0  0  0  0  0  0  0  0  0  0  0
   -0.9192   -0.1036   -0.2135 C   0  0  0  0  0  0  0  0  0  0  0  0
    1.5079   -0.5470    3.6290 C   0  0  0  0  0  0  0  0  0  0  0  0
   -1.5488   -0.1959   -2.5610 C   0  0  0  0  0  0  0  0  0  0  0  0
   -0.0321   -2.4440    3.7941 C   0  0  0  0  0  0  0  0  0  0  0  0
   -3.0571   -0.4687   -2.3327 C   0  0  0  0  0  0  0  0  0  0  0  0
   -1.4788   -2.8947    4.0725 C   0  0  0  0  0  0  0  0  0  0  0  0
  1 10  1  0  0  0  0
  2  8  1  0  0  0  0
  2  9  1  0  0  0  0
  3 11  1  0  0  0  0
  3 12  1  0  0  0  0
  4 13  1  0  0  0  0
  4 15  1  0  0  0  0
  5 14  1  0  0  0  0
  5 16  1  0  0  0  0
  6 17  1  0  0  0  0
  7 18  1  0  0  0  0
  8  9  1  0  0  0  0
  8 10  1  0  0  0  0
 11 13  1  0  0  0  0
 12 14  1  0  0  0  0
 15 17  1  0  0  0  0
 16 18  1  0  0  0  0
M  END
