
 OpenBabel10141417503D

 25 27  0  0  1  0  0  0  0  0999 V2000
    2.5464   -0.8121   -1.4100 C   0  0  0  0  0  0  0  0  0  0  0  0
    3.0524    0.4828   -1.2975 C   0  0  0  0  0  0  0  0  0  0  0  0
    2.1875    1.5268   -0.9751 C   0  0  0  0  0  0  0  0  0  0  0  0
    0.8199    1.2820   -0.7354 C   0  0  0  0  0  0  0  0  0  0  0  0
    0.3131   -0.0249   -0.8596 C   0  0  0  0  0  0  0  0  0  0  0  0
    1.1928   -1.0658   -1.1922 C   0  0  0  0  0  0  0  0  0  0  0  0
   -0.0777    2.4550   -0.4252 C   0  0  0  0  0  0  0  0  0  0  0  0
   -1.4662    2.0505    0.0715 C   0  0  0  0  0  0  0  0  0  0  0  0
   -2.0421    0.9268   -0.8055 C   0  0  2  0  0  0  0  0  0  0  0  0
   -1.1632   -0.3371   -0.6785 C   0  0  2  0  0  0  0  0  0  0  0  0
   -3.5330    0.6626   -0.5142 C   0  0  1  0  0  0  0  0  0  0  0  0
   -3.8519   -0.2779    0.6746 C   0  0  1  0  0  0  0  0  0  0  0  0
   -2.8918   -1.4730    0.7785 C   0  0  0  0  0  0  0  0  0  0  0  0
   -1.4224   -1.0835    0.6412 C   0  0  0  0  0  0  0  0  0  0  0  0
    4.3959    0.5925   -1.5443 O   0  0  0  0  0  0  0  0  0  0  0  0
    5.2776    1.9127   -1.1974 S   0  0  0  0  0  0  0  0  0  0  0  0
    4.9652    2.9120   -2.2011 O   0  5  0  0  0  0  0  0  0  0  0  0
    4.9800    2.2927    0.1850 O   0  0  0  0  0  0  0  0  0  0  0  0
    6.6747    1.4493   -1.2012 O   0  0  0  0  0  0  0  0  0  0  0  0
   -3.9703    0.4759    2.0005 C   0  0  0  0  0  0  0  0  0  0  0  0
   -4.2301   -0.0121   -1.7092 C   0  0  0  0  0  0  0  0  0  0  0  0
   -5.5735   -0.4648   -1.1609 C   0  0  0  0  0  0  0  0  0  0  0  0
   -5.2285   -0.8027    0.2655 C   0  0  0  0  0  0  0  0  0  0  0  0
   -5.9801   -1.4259    1.0063 O   0  0  0  0  0  0  0  0  0  0  0  0
    7.1044    2.0946    0.8783 Na  0  3  0  0  0 15  0  0  0  0  0  0
  1  2  2  0  0  0  0
  1  6  1  0  0  0  0
  2  3  1  0  0  0  0
  2 15  1  0  0  0  0
  3  4  2  0  0  0  0
  4  5  1  0  0  0  0
  4  7  1  0  0  0  0
  5  6  2  0  0  0  0
  7  8  1  0  0  0  0
  9  8  1  6  0  0  0
  9 10  1  0  0  0  0
  9 11  1  0  0  0  0
 10  5  1  1  0  0  0
 10 14  1  0  0  0  0
 11 12  1  0  0  0  0
 11 21  1  1  0  0  0
 12 13  1  0  0  0  0
 12 23  1  0  0  0  0
 12 20  1  1  0  0  0
 13 14  1  0  0  0  0
 15 16  1  0  0  0  0
 16 17  1  0  0  0  0
 16 18  2  0  0  0  0
 16 19  2  0  0  0  0
 21 22  1  0  0  0  0
 22 23  1  0  0  0  0
 23 24  2  0  0  0  0
M  CHG  2  17  -1  25   1
M  END
