1380
 OpenBabel10141417523D

 29 32  0  0  1  0  0  0  0  0999 V2000
   25.0769    1.2265   -4.4665 O   0  0  0  0  0  0  0  0  0  0  0  0
   24.6714   -3.7084   -3.9295 O   0  0  0  0  0  0  0  0  0  0  0  0
   22.5848    2.1331   -6.8201 O   0  0  0  0  0  0  0  0  0  0  0  0
   24.9382    3.0377   -8.0196 O   0  0  0  0  0  0  0  0  0  0  0  0
   23.0910   -6.2035    0.9933 O   0  0  0  0  0  0  0  0  0  0  0  0
   25.1403    4.2400   -6.0646 O   0  0  0  0  0  0  0  0  0  0  0  0
   21.9747   -0.6417   -4.5106 C   0  0  2  0  0  0  0  0  0  0  0  0
   23.4467   -0.5499   -5.0281 C   0  0  1  0  0  0  0  0  0  0  0  0
   21.7462   -1.5534   -3.2786 C   0  0  1  0  0  0  0  0  0  0  0  0
   22.3926   -2.9416   -3.5119 C   0  0  1  0  0  0  0  0  0  0  0  0
   23.7839    0.9901   -5.0186 C   0  0  1  0  0  0  0  0  0  0  0  0
   21.9890   -3.9619   -2.3775 C   0  0  2  0  0  0  0  0  0  0  0  0
   21.4890    0.7937   -4.3067 C   0  0  0  0  0  0  0  0  0  0  0  0
   24.4096   -1.3617   -4.1340 C   0  0  0  0  0  0  0  0  0  0  0  0
   22.7523    1.5914   -4.0519 C   0  0  0  0  0  0  0  0  0  0  0  0
   22.1340   -0.9882   -1.8976 C   0  0  0  0  0  0  0  0  0  0  0  0
   23.8937   -2.7592   -3.8279 C   0  0  0  0  0  0  0  0  0  0  0  0
   23.5256   -1.1678   -6.4454 C   0  0  0  0  0  0  0  0  0  0  0  0
   22.1835   -3.3723   -0.9812 C   0  0  0  0  0  0  0  0  0  0  0  0
   21.7653   -1.9379   -0.7605 C   0  0  0  0  0  0  0  0  0  0  0  0
   22.7605   -5.3076   -2.4955 C   0  0  0  0  0  0  0  0  0  0  0  0
   23.6634    1.7114   -6.3919 C   0  0  0  0  0  0  0  0  0  0  0  0
   20.4718   -4.2827   -2.5347 C   0  0  0  0  0  0  0  0  0  0  0  0
   22.5100   -6.2632   -1.3344 C   0  0  0  0  0  0  0  0  0  0  0  0
   22.5982   -4.1064    0.0686 C   0  0  0  0  0  0  0  0  0  0  0  0
   22.7955   -5.5762   -0.0217 C   0  0  0  0  0  0  0  0  0  0  0  0
   24.9331    1.8538   -7.2248 C   0  0  0  0  0  0  0  0  0  0  0  0
   25.1626    4.1676   -7.2948 C   0  0  0  0  0  0  0  0  0  0  0  0
   25.5423    5.2809   -8.2161 C   0  0  0  0  0  0  0  0  0  0  0  0
  2 17  2  0  0  0  0
  3 22  2  0  0  0  0
  4 27  1  0  0  0  0
  4 28  1  0  0  0  0
  5 26  2  0  0  0  0
  6 28  2  0  0  0  0
  7  8  1  0  0  0  0
  7  9  1  0  0  0  0
  7 13  1  6  0  0  0
  8 11  1  0  0  0  0
  8 14  1  0  0  0  0
  8 18  1  6  0  0  0
  9 10  1  0  0  0  0
  9 16  1  1  0  0  0
 10 12  1  0  0  0  0
 10 17  1  6  0  0  0
 11 15  1  0  0  0  0
 11  1  1  1  0  0  0
 11 22  1  0  0  0  0
 12 19  1  0  0  0  0
 12 21  1  0  0  0  0
 12 23  1  6  0  0  0
 13 15  1  0  0  0  0
 14 17  1  0  0  0  0
 16 20  1  0  0  0  0
 19 20  1  0  0  0  0
 19 25  2  0  0  0  0
 21 24  1  0  0  0  0
 22 27  1  0  0  0  0
 24 26  1  0  0  0  0
 25 26  1  0  0  0  0
 28 29  1  0  0  0  0
M  END
