
 OpenBabel10141417483D

 30 33  0  0  1  0  0  0  0  0999 V2000
   -4.0515    1.4103   -1.5502 C   0  0  0  0  0  0  0  0  0  0  0  0
   -3.5672    1.6111   -0.2629 C   0  0  0  0  0  0  0  0  0  0  0  0
   -2.2153    1.3359   -0.0311 C   0  0  0  0  0  0  0  0  0  0  0  0
   -1.3897    0.9051   -1.0635 C   0  0  0  0  0  0  0  0  0  0  0  0
   -1.9828    0.7538   -2.3305 C   0  0  0  0  0  0  0  0  0  0  0  0
   -3.2900    0.9923   -2.5783 N   0  0  0  0  0  0  0  0  0  0  0  0
   -1.2619    0.3409   -3.4478 N   0  0  0  0  0  0  0  0  0  0  0  0
   -0.0665    0.5643   -0.9146 O   0  0  0  0  0  0  0  0  0  0  0  0
    0.7133    1.1900    0.1189 C   0  0  1  0  0  0  0  0  0  0  0  0
    1.8772    0.3366    0.6442 C   0  0  0  0  0  0  0  0  0  0  0  0
    2.6143   -0.5635   -0.1550 C   0  0  0  0  0  0  0  0  0  0  0  0
    3.7592   -1.2125    0.3431 C   0  0  0  0  0  0  0  0  0  0  0  0
    4.2210   -0.9577    1.6294 C   0  0  0  0  0  0  0  0  0  0  0  0
    3.5097   -0.0863    2.4357 C   0  0  0  0  0  0  0  0  0  0  0  0
    2.3439    0.5386    1.9715 C   0  0  0  0  0  0  0  0  0  0  0  0
    1.5256    1.5817    3.0945 Cl  0  0  0  0  0  0  0  0  0  0  0  0
    3.9781    0.1661    3.6677 F   0  0  0  0  0  0  0  0  0  0  0  0
    2.2355   -0.9073   -1.8059 Cl  0  0  0  0  0  0  0  0  0  0  0  0
    1.2766    2.5116   -0.4126 C   0  0  0  0  0  0  0  0  0  0  0  0
   -4.4281    2.0735    0.7937 C   0  0  0  0  0  0  0  0  0  0  0  0
   -5.8065    1.8940    1.0260 C   0  0  0  0  0  0  0  0  0  0  0  0
   -6.2214    2.5021    2.1364 N   0  0  0  0  0  0  0  0  0  0  0  0
   -5.1109    3.0788    2.6263 N   0  0  0  0  0  0  0  0  0  0  0  0
   -4.0077    2.8611    1.8513 C   0  0  0  0  0  0  0  0  0  0  0  0
   -5.1318    3.8603    3.8598 C   0  0  0  0  0  0  0  0  0  0  0  0
   -4.8495    2.9858    5.0867 C   0  0  0  0  0  0  0  0  0  0  0  0
   -6.0927    2.2387    5.5582 C   0  0  0  0  0  0  0  0  0  0  0  0
   -7.2022    3.1586    5.8081 N   0  0  0  0  0  0  0  0  0  0  0  0
   -7.5738    3.8686    4.5826 C   0  0  0  0  0  0  0  0  0  0  0  0
   -6.4101    4.6912    4.0319 C   0  0  0  0  0  0  0  0  0  0  0  0
  1  2  2  0  0  0  0
  1  6  1  0  0  0  0
  2  3  1  0  0  0  0
  2 20  1  0  0  0  0
  3  4  2  0  0  0  0
  4  5  1  0  0  0  0
  4  8  1  0  0  0  0
  5  6  2  0  0  0  0
  5  7  1  0  0  0  0
  9  8  1  6  0  0  0
  9 10  1  0  0  0  0
  9 19  1  0  0  0  0
 10 11  2  0  0  0  0
 10 15  1  0  0  0  0
 11 12  1  0  0  0  0
 11 18  1  0  0  0  0
 12 13  2  0  0  0  0
 13 14  1  0  0  0  0
 14 15  2  0  0  0  0
 14 17  1  0  0  0  0
 15 16  1  0  0  0  0
 20 21  1  0  0  0  0
 20 24  2  0  0  0  0
 21 22  2  0  0  0  0
 22 23  1  0  0  0  0
 23 24  1  0  0  0  0
 23 25  1  0  0  0  0
 25 26  1  0  0  0  0
 25 30  1  0  0  0  0
 26 27  1  0  0  0  0
 27 28  1  0  0  0  0
 28 29  1  0  0  0  0
 29 30  1  0  0  0  0
M  END
