
 OpenBabel10141418203D

 34 37  0  0  0  0  0  0  0  0999 V2000
   -5.4668   -3.0581   -3.2145 C   0  0  0  0  0  0  0  0  0  0  0  0
   -5.7663   -1.8964   -5.3332 C   0  0  0  0  0  0  0  0  0  0  0  0
   -4.2954   -2.1862   -2.9421 C   0  0  0  0  0  0  0  0  0  0  0  0
   -6.1360   -2.8952   -4.5253 C   0  0  0  0  0  0  0  0  0  0  0  0
   -1.6257   -9.0081    3.0756 C   0  0  0  0  0  0  0  0  0  0  0  0
   -0.4446  -10.7949    4.2289 C   0  0  0  0  0  0  0  0  0  0  0  0
   -4.8239   -0.9453   -5.0007 O   0  0  0  0  0  0  0  0  0  0  0  0
   -4.1184   -1.1101   -3.8319 C   0  0  0  0  0  0  0  0  0  0  0  0
   -1.5431  -10.3835    3.5923 C   0  0  0  0  0  0  0  0  0  0  0  0
   -0.6014   -8.0648    3.5751 C   0  0  0  0  0  0  0  0  0  0  0  0
    0.4992   -8.6115    4.2458 C   0  0  0  0  0  0  0  0  0  0  0  0
   -6.4095   -1.7858   -6.6751 C   0  0  0  0  0  0  0  0  0  0  0  0
   -0.3310  -12.1953    4.6880 C   0  0  0  0  0  0  0  0  0  0  0  0
    0.6530   -9.9626    4.4676 O   0  0  0  0  0  0  0  0  0  0  0  0
   -3.4212   -2.3397   -1.8366 C   0  0  0  0  0  0  0  0  0  0  0  0
   -0.7171   -6.6730    3.3985 C   0  0  0  0  0  0  0  0  0  0  0  0
   -5.9271   -3.8526   -2.4084 O   0  0  0  0  0  0  0  0  0  0  0  0
   -2.4993   -8.7172    2.2781 O   0  0  0  0  0  0  0  0  0  0  0  0
   -7.2691   -2.5311   -7.1010 O   0  0  0  0  0  0  0  0  0  0  0  0
   -1.4304  -12.9331    4.4155 O   0  0  0  0  0  0  0  0  0  0  0  0
   -3.4841   -3.4803   -1.0557 O   0  0  0  0  0  0  0  0  0  0  0  0
   -1.8219   -6.1957    2.7407 O   0  0  0  0  0  0  0  0  0  0  0  0
    0.6259  -12.6829    5.2568 O   0  0  0  0  0  0  0  0  0  0  0  0
   -5.9002   -0.7570   -7.3984 O   0  0  0  0  0  0  0  0  0  0  0  0
   -2.7104   -4.9023    0.8661 C   0  0  0  0  0  0  0  0  0  0  0  0
   -2.6158   -3.5565    0.1018 C   0  0  0  0  0  0  0  0  0  0  0  0
   -1.7137   -4.9357    2.0568 C   0  0  0  0  0  0  0  0  0  0  0  0
   -3.1712   -0.1208   -3.5827 C   0  0  0  0  0  0  0  0  0  0  0  0
    1.5042   -7.7807    4.7397 C   0  0  0  0  0  0  0  0  0  0  0  0
   -4.0313   -5.0818    1.3884 O   0  0  0  0  0  0  0  0  0  0  0  0
    1.3771   -6.3981    4.6087 C   0  0  0  0  0  0  0  0  0  0  0  0
   -2.3648   -0.2181   -2.4596 C   0  0  0  0  0  0  0  0  0  0  0  0
   -2.4717   -1.3263   -1.6118 C   0  0  0  0  0  0  0  0  0  0  0  0
    0.2658   -5.8465    3.9562 C   0  0  0  0  0  0  0  0  0  0  0  0
  2  4  2  0  0  0  0
  3  1  1  0  0  0  0
  4  1  1  0  0  0  0
  5 10  1  0  0  0  0
  6 14  1  0  0  0  0
  7  2  1  0  0  0  0
  8  3  2  0  0  0  0
  8  7  1  0  0  0  0
  9  5  1  0  0  0  0
  9  6  2  0  0  0  0
 10 16  1  0  0  0  0
 11 10  2  0  0  0  0
 11 29  1  0  0  0  0
 12  2  1  0  0  0  0
 13  6  1  0  0  0  0
 14 11  1  0  0  0  0
 15  3  1  0  0  0  0
 16 22  1  0  0  0  0
 17  1  2  0  0  0  0
 18  5  2  0  0  0  0
 19 12  2  0  0  0  0
 20 13  1  0  0  0  0
 21 15  1  0  0  0  0
 22 27  1  0  0  0  0
 23 13  2  0  0  0  0
 24 12  1  0  0  0  0
 25 26  1  0  0  0  0
 26 21  1  0  0  0  0
 27 25  1  0  0  0  0
 28  8  1  0  0  0  0
 28 32  2  0  0  0  0
 29 31  2  0  0  0  0
 30 25  1  0  0  0  0
 31 34  1  0  0  0  0
 32 33  1  0  0  0  0
 33 15  2  0  0  0  0
 34 16  2  0  0  0  0
M  END
