
 OpenBabel10141418113D

 93104  0  0  1  0  0  0  0  0999 V2000
    6.2413  -16.1529    5.1123 C   0  0  0  0  0  0  0  0  0  0  0  0
    7.2993  -16.0594    6.9608 N   0  0  0  0  0  0  0  0  0  0  0  0
    5.0333  -17.9267    5.8851 C   0  0  1  0  0  0  0  0  0  0  0  0
    3.4275  -19.0149    4.3153 C   0  0  0  0  0  0  0  0  0  0  0  0
    2.3396  -20.0306    2.7873 C   0  0  0  0  0  0  0  0  0  0  0  0
    2.0757  -19.3032    1.8217 O   0  0  0  0  0  0  0  0  0  0  0  0
    8.3459  -12.8285    9.7188 N   0  0  0  0  0  0  0  0  0  0  0  0
    8.9404  -11.5375   10.6654 C   0  0  0  0  0  0  0  0  0  0  0  0
    9.8449  -10.8612   12.2014 C   0  0  1  0  0  0  0  0  0  0  0  0
   10.5284   -8.7282   13.3064 C   0  0  0  0  0  0  0  0  0  0  0  0
   11.3929   -8.0447   14.7731 C   0  0  0  0  0  0  0  0  0  0  0  0
   11.9120   -6.6592   15.6204 C   0  0  0  0  0  0  0  0  0  0  0  0
   12.9775   -6.1750   15.2361 O   0  0  0  0  0  0  0  0  0  0  0  0
    9.4892  -12.4337   12.8428 C   0  0  2  0  0  0  0  0  0  0  0  0
    9.9130  -11.0802   13.9599 C   0  0  0  0  0  0  0  0  0  0  0  0
   10.6037  -12.1301   14.9180 C   0  0  0  0  0  0  0  0  0  0  0  0
   11.2193  -10.6377   16.2142 C   0  0  0  0  0  0  0  0  0  0  0  0
   12.3368  -10.1977   15.9329 O   0  0  0  0  0  0  0  0  0  0  0  0
    8.5581   -9.7826    9.3444 C   0  0  0  0  0  0  0  0  0  0  0  0
    8.1535  -11.0541    8.3656 N   0  0  0  0  0  0  0  0  0  0  0  0
    9.0318  -10.4790    7.6105 C   0  0  0  0  0  0  0  0  0  0  0  0
    9.4729  -11.3249    6.7264 C   0  0  0  0  0  0  0  0  0  0  0  0
    8.4289  -11.4182    5.9772 C   0  0  0  0  0  0  0  0  0  0  0  0
    7.6351  -12.2826    6.3891 N   0  0  0  0  0  0  0  0  0  0  0  0
    6.8344  -12.5477    5.1128 C   0  0  0  0  0  0  0  0  0  0  0  0
    6.7161  -11.1176    4.4138 C   0  0  1  0  0  0  0  0  0  0  0  0
    5.4780  -10.0261    4.0093 C   0  0  0  0  0  0  0  0  0  0  0  0
    5.4262   -8.5477    3.2788 C   0  0  0  0  0  0  0  0  0  0  0  0
    4.1939   -7.7475    3.0188 C   0  0  0  0  0  0  0  0  0  0  0  0
    3.5154   -7.9775    2.0186 O   0  0  0  0  0  0  0  0  0  0  0  0
    7.5456  -10.3933    5.4375 C   0  0  0  0  0  0  0  0  0  0  0  0
    8.5178   -9.4777    4.7964 C   0  0  0  0  0  0  0  0  0  0  0  0
    6.4806   -9.9024    6.5844 C   0  0  0  0  0  0  0  0  0  0  0  0
    9.4097   -8.7897    7.6981 C   0  0  1  0  0  0  0  0  0  0  0  0
    8.1944   -7.6814    7.4603 C   0  0  0  0  0  0  0  0  0  0  0  0
    7.9416   -6.0683    7.4201 C   0  0  0  0  0  0  0  0  0  0  0  0
    6.5729   -5.6081    7.1471 C   0  0  0  0  0  0  0  0  0  0  0  0
    6.1670   -5.6008    5.9951 O   0  0  0  0  0  0  0  0  0  0  0  0
    9.7057   -8.2943    8.9313 C   0  0  1  0  0  0  0  0  0  0  0  0
    9.4438   -6.5890    9.2730 C   0  0  0  0  0  0  0  0  0  0  0  0
   11.3860   -7.7058    9.0625 C   0  0  0  0  0  0  0  0  0  0  0  0
   12.0502   -6.4175    8.6259 C   0  0  0  0  0  0  0  0  0  0  0  0
   12.4173   -6.2615    7.4564 O   0  0  0  0  0  0  0  0  0  0  0  0
    8.7790   -9.9922   10.4617 C   0  0  0  0  0  0  0  0  0  0  0  0
    9.2906   -8.5751   11.2780 C   0  0  0  0  0  0  0  0  0  0  0  0
    6.0255  -14.3132    4.3401 C   0  0  0  0  0  0  0  0  0  0  0  0
    4.7917  -13.6051    3.6585 C   0  0  0  0  0  0  0  0  0  0  0  0
    6.6660  -16.4017    8.1796 C   0  0  2  0  0  0  0  0  0  0  0  0
    8.3475  -14.2519   10.5461 C   0  0  2  0  0  0  0  0  0  0  0  0
    9.6626  -14.7353   11.5789 C   0  0  0  0  0  0  0  0  0  0  0  0
    3.2239  -18.0734    0.4866 C   0  0  0  0  0  0  0  0  0  0  0  0
    3.5817  -17.0150   -0.4174 C   0  0  0  0  0  0  0  0  0  0  0  0
    2.9684  -15.9681   -0.3237 O   0  0  0  0  0  0  0  0  0  0  0  0
    4.7057  -17.0878   -1.1852 N   0  0  0  0  0  0  0  0  0  0  0  0
    5.5071  -18.2876   -1.5552 C   0  0  0  0  0  0  0  0  0  0  0  0
    7.0247  -17.9572   -1.6126 C   0  0  2  0  0  0  0  0  0  0  0  0
    4.2797  -18.0286    1.9799 C   0  0  0  0  0  0  0  0  0  0  0  0
    5.3314  -17.7733    3.9298 C   0  0  1  0  0  0  0  0  0  0  0  0
    5.5532  -19.6132    3.0204 C   0  0  0  0  0  0  0  0  0  0  0  0
   11.2753   -5.9013   16.6028 N   0  0  0  0  0  0  0  0  0  0  0  0
   12.0897   -5.3916    9.4609 N   0  0  0  0  0  0  0  0  0  0  0  0
    5.7170   -5.4055    8.1651 N   0  0  0  0  0  0  0  0  0  0  0  0
    3.7575   -6.8784    3.9282 N   0  0  0  0  0  0  0  0  0  0  0  0
   10.7217   -9.8670   17.3855 N   0  0  0  0  0  0  0  0  0  0  0  0
    1.7994  -21.4344    2.4185 N   0  0  0  0  0  0  0  0  0  0  0  0
    3.4722  -13.1307    7.2682 C   0  0  0  0  0  0  0  0  0  0  0  0
    4.1960  -15.2240    5.9074 C   0  0  0  0  0  0  0  0  0  0  0  0
    5.0299  -13.3378    7.3733 C   0  0  0  0  0  0  0  0  0  0  0  0
    7.0486  -13.9825    7.6108 C   0  0  0  0  0  0  0  0  0  0  0  0
    5.3238  -14.3586    6.6110 C   0  0  0  0  0  0  0  0  0  0  0  0
    6.3616  -12.7892    7.9876 N   0  0  0  0  0  0  0  0  0  0  0  0
    6.8303  -14.3627    6.3912 N   0  0  0  0  0  0  0  0  0  0  0  0
    2.5545  -13.8495    6.1834 C   0  0  0  0  0  0  0  0  0  0  0  0
    1.1628  -13.6151    5.6049 C   0  0  0  0  0  0  0  0  0  0  0  0
    3.0252  -14.8981    5.5047 C   0  0  0  0  0  0  0  0  0  0  0  0
    2.4509  -15.6262    4.0646 C   0  0  0  0  0  0  0  0  0  0  0  0
    8.2581  -15.1131    5.0166 C   0  0  1  0  0  0  0  0  0  0  0  0
    9.6213  -14.8393    4.6575 O   0  0  0  0  0  0  0  0  0  0  0  0
   10.0546  -15.8864    3.6112 C   0  0  2  0  0  0  0  0  0  0  0  0
   11.2584  -15.4403    2.8614 C   0  0  0  0  0  0  0  0  0  0  0  0
   11.6005  -16.4179    1.9383 O   0  0  0  0  0  0  0  0  0  0  0  0
    7.9427  -16.1405    3.4508 C   0  0  2  0  0  0  0  0  0  0  0  0
    7.8220  -17.5651    3.6381 O   0  0  0  0  0  0  0  0  0  0  0  0
    9.0498  -16.1748    2.4828 C   0  0  2  0  0  0  0  0  0  0  0  0
    9.4234  -17.4492    1.8182 O   0  0  0  0  0  0  0  0  0  0  0  0
    8.0336  -19.9109    1.5463 O   0  0  0  0  0  0  0  0  0  0  0  0
    7.4432  -17.4052   -0.3795 O   0  0  0  0  0  0  0  0  0  0  0  0
    7.2715  -16.8815   -2.6762 C   0  0  0  0  0  0  0  0  0  0  0  0
    8.4126  -18.4245    0.6830 P   0  0  3  0  0  0  0  0  0  0  0  0
    7.1530  -18.0464    1.4279 O   0  0  0  0  0  0  0  0  0  0  0  0
    7.7974  -12.7525    8.0740 Co  0  0  0  0  0  0  0  0  0  0  0  0
    6.2652  -13.4325    9.8170 C   0  0  0  0  0  0  0  0  0  0  0  0
    5.6678  -14.1109   10.5675 N   0  0  0  0  0  0  0  0  0  0  0  0
  1  2  1  0  0  0  0
  2 91  1  0  0  0  0
  3 58  1  0  0  0  0
  3  4  1  1  0  0  0
  4  5  1  0  0  0  0
  5 65  1  0  0  0  0
  5  6  2  0  0  0  0
  7  8  2  0  0  0  0
  7 91  8  0  0  0  0
  8 44  1  0  0  0  0
  9  8  1  0  0  0  0
  9 10  1  1  0  0  0
 10 11  1  0  0  0  0
 11 12  1  0  0  0  0
 12 60  1  0  0  0  0
 12 13  2  0  0  0  0
 14  9  1  0  0  0  0
 14 16  1  6  0  0  0
 14 15  1  0  0  0  0
 16 17  1  0  0  0  0
 17 64  1  0  0  0  0
 17 18  2  0  0  0  0
 19 20  1  0  0  0  0
 19 39  1  0  0  0  0
 20 21  2  0  0  0  0
 20 91  8  0  0  0  0
 21 22  1  0  0  0  0
 21 34  1  0  0  0  0
 22 23  2  0  0  0  0
 23 24  1  0  0  0  0
 23 31  1  0  0  0  0
 24 25  2  0  0  0  0
 24 91  8  0  0  0  0
 25 26  1  0  0  0  0
 26 31  1  0  0  0  0
 26 27  1  1  0  0  0
 27 28  1  0  0  0  0
 28 29  1  0  0  0  0
 29 63  1  0  0  0  0
 29 30  2  0  0  0  0
 31 32  1  0  0  0  0
 31 33  1  0  0  0  0
 34 39  1  0  0  0  0
 34 35  1  1  0  0  0
 35 36  1  0  0  0  0
 36 37  1  0  0  0  0
 37 62  1  0  0  0  0
 37 38  2  0  0  0  0
 39 41  1  1  0  0  0
 39 40  1  0  0  0  0
 41 42  1  0  0  0  0
 42 61  1  0  0  0  0
 42 43  2  0  0  0  0
 44 19  2  0  0  0  0
 44 45  1  0  0  0  0
 46  1  2  0  0  0  0
 46 25  1  0  0  0  0
 46 47  1  0  0  0  0
 48  2  1  6  0  0  0
 48  3  1  0  0  0  0
 48 49  1  0  0  0  0
 49  7  1  0  0  0  0
 49 14  1  0  0  0  0
 49 50  1  1  0  0  0
 51 52  1  0  0  0  0
 52 54  1  0  0  0  0
 52 53  2  0  0  0  0
 55 54  1  0  0  0  0
 56 55  1  0  0  0  0
 56 87  1  0  0  0  0
 56 88  1  6  0  0  0
 57 51  1  0  0  0  0
 58  1  1  0  0  0  0
 58 57  1  0  0  0  0
 58 59  1  6  0  0  0
 66 68  2  0  0  0  0
 66 73  1  0  0  0  0
 67 75  1  0  0  0  0
 68 71  1  0  0  0  0
 68 70  1  0  0  0  0
 69 72  1  0  0  0  0
 69 71  2  0  0  0  0
 70 67  2  0  0  0  0
 71 91  8  0  0  0  0
 72 70  1  0  0  0  0
 73 74  1  0  0  0  0
 75 73  2  0  0  0  0
 75 76  1  0  0  0  0
 77 72  1  1  0  0  0
 77 82  1  0  0  0  0
 77 78  1  0  0  0  0
 79 78  1  0  0  0  0
 79 80  1  6  0  0  0
 80 81  1  0  0  0  0
 82 84  1  0  0  0  0
 82 83  1  1  0  0  0
 84 79  1  0  0  0  0
 84 85  1  1  0  0  0
 89 85  1  0  0  0  0
 89 87  1  0  0  0  0
 89 86  1  0  0  0  0
 89 90  2  0  0  0  0
 91 92  1  0  0  0  0
 92 93  3  0  0  0  0
M  END
