531
 OpenBabel10141417543D

 14 14  0  0  1  0  0  0  0  0999 V2000
    0.6064    0.7959   -2.1887 Cl  0  0  0  0  0  0  0  0  0  0  0  0
    6.1742    5.3499   -1.3175 Cl  0  0  0  0  0  0  0  0  0  0  0  0
    5.3546    0.4999   -1.3580 P   0  0  3  0  0  0  0  0  0  0  0  0
    5.5425    0.8400   -2.9202 O   0  0  0  0  0  0  0  0  0  0  0  0
    4.8631   -0.9061   -1.1555 O   0  0  0  0  0  0  0  0  0  0  0  0
    4.3686    1.6977   -0.8069 N   0  0  0  0  0  0  0  0  0  0  0  0
    6.8084    0.7764   -0.6720 N   0  0  0  0  0  0  0  0  0  0  0  0
    7.9909    0.3574   -1.4072 C   0  0  0  0  0  0  0  0  0  0  0  0
    7.9462    0.8783   -2.8429 C   0  0  0  0  0  0  0  0  0  0  0  0
    6.7097    0.3589   -3.5615 C   0  0  0  0  0  0  0  0  0  0  0  0
    2.9193    1.4018   -0.8733 C   0  0  0  0  0  0  0  0  0  0  0  0
    4.6313    3.0911   -1.2326 C   0  0  0  0  0  0  0  0  0  0  0  0
    2.3608    1.1142   -2.2746 C   0  0  0  0  0  0  0  0  0  0  0  0
    6.0031    3.6445   -0.8210 C   0  0  0  0  0  0  0  0  0  0  0  0
  1 13  1  0  0  0  0
  2 14  1  0  0  0  0
  3  4  1  0  0  0  0
  3  5  2  0  0  0  0
  3  6  1  0  0  0  0
  3  7  1  0  0  0  0
  4 10  1  0  0  0  0
  6 11  1  0  0  0  0
  6 12  1  0  0  0  0
  7  8  1  0  0  0  0
  8  9  1  0  0  0  0
  9 10  1  0  0  0  0
 11 13  1  0  0  0  0
 12 14  1  0  0  0  0
M  END
