606
 OpenBabel10141417523D

 24 27  0  0  1  0  0  0  0  0999 V2000
    1.1267    0.5927   -0.0566 Cl  0  0  0  0  0  0  0  0  0  0  0  0
    7.3469   -0.0811    0.0430 S   0  0  0  0  0  0  0  0  0  0  0  0
    2.3951   -2.3768   -0.0872 S   0  0  0  0  0  0  0  0  0  0  0  0
    7.6884   -0.8978   -1.0997 O   0  0  0  0  0  0  0  0  0  0  0  0
    7.7710   -0.4068    1.3853 O   0  0  0  0  0  0  0  0  0  0  0  0
    1.6612   -2.4856    1.1509 O   0  0  0  0  0  0  0  0  0  0  0  0
    1.7797   -2.4393   -1.3910 O   0  0  0  0  0  0  0  0  0  0  0  0
    7.8388    1.4747   -0.3132 N   0  0  0  0  0  0  0  0  0  0  0  0
    5.8105    2.5452    0.0959 N   0  0  0  0  0  0  0  0  0  0  0  0
    3.4718   -3.6708   -0.0578 N   0  0  0  0  0  0  0  0  0  0  0  0
    7.8915    3.8165    0.2893 C   0  0  3  0  0  0  0  0  0  0  0  0
    7.3162    5.0164    1.0944 C   0  0  3  0  0  0  0  0  0  0  0  0
    9.4792    5.0546    1.6539 C   0  0  3  0  0  0  0  0  0  0  0  0
    9.3967    3.8252    0.7256 C   0  0  0  0  0  0  0  0  0  0  0  0
    8.4830    6.0072    0.9892 C   0  0  0  0  0  0  0  0  0  0  0  0
    7.1971    2.4656    0.5243 C   0  0  3  0  0  0  0  0  0  0  0  0
    7.3963    4.7248    2.5748 C   0  0  0  0  0  0  0  0  0  0  0  0
    8.6961    4.7359    2.9065 C   0  0  0  0  0  0  0  0  0  0  0  0
    5.0457    1.3707    0.1358 C   0  0  0  0  0  0  0  0  0  0  0  0
    5.5962    0.0893    0.0784 C   0  0  0  0  0  0  0  0  0  0  0  0
    3.6489    1.4685    0.0645 C   0  0  0  0  0  0  0  0  0  0  0  0
    4.8077   -1.0656    0.0129 C   0  0  0  0  0  0  0  0  0  0  0  0
    3.4153   -0.9415   -0.0130 C   0  0  0  0  0  0  0  0  0  0  0  0
    2.8318    0.3266    0.0060 C   0  0  0  0  0  0  0  0  0  0  0  0
  1 24  1  0  0  0  0
  2  4  2  0  0  0  0
  2  5  2  0  0  0  0
  2  8  1  0  0  0  0
  2 20  1  0  0  0  0
  3  6  2  0  0  0  0
  3  7  2  0  0  0  0
  3 10  1  0  0  0  0
  3 23  1  0  0  0  0
  8 16  1  0  0  0  0
  9 16  1  0  0  0  0
  9 19  1  0  0  0  0
 11 12  1  0  0  0  0
 11 14  1  0  0  0  0
 11 16  1  0  0  0  0
 12 15  1  0  0  0  0
 12 17  1  0  0  0  0
 13 14  1  0  0  0  0
 13 15  1  0  0  0  0
 13 18  1  0  0  0  0
 17 18  2  0  0  0  0
 19 20  1  0  0  0  0
 19 21  2  0  0  0  0
 20 22  2  0  0  0  0
 21 24  1  0  0  0  0
 22 23  1  0  0  0  0
 23 24  2  0  0  0  0
M  END
