
 OpenBabel10141417473D

  7  7  0  0  0  0  0  0  0  0999 V2000
   -0.6920   -0.9254    0.4702 O   0  0  0  0  0  0  0  0  0  0  0  0
    0.6980   -1.0268    0.1400 C   0  0  0  0  0  0  0  0  0  0  0  0
   -1.0554    0.4092    0.2015 N   0  0  0  0  0  0  0  0  0  0  0  0
    1.2695    0.3880    0.0908 C   0  0  1  0  0  0  0  0  0  0  0  0
    2.2745    0.5961   -0.9660 N   0  0  0  0  0  0  0  0  0  0  0  0
    0.0119    1.1980   -0.1392 C   0  0  0  0  0  0  0  0  0  0  0  0
   -0.0692    2.3492   -0.5320 O   0  0  0  0  0  0  0  0  0  0  0  0
  1  2  1  0  0  0  0
  1  3  1  0  0  0  0
  2  4  1  0  0  0  0
  4  6  1  0  0  0  0
  4  5  1  6  0  0  0
  6  3  1  0  0  0  0
  6  7  2  0  0  0  0
M  END
