1000
 OpenBabel10141418193D

 23 25  0  0  1  0  0  0  0  0999 V2000
   -3.0836    0.4830   -0.0529 S   0  0  0  0  0  0  0  0  0  0  0  0
    0.8397    1.8584    0.6091 O   0  0  0  0  0  0  0  0  0  0  0  0
   -0.9919    1.4377   -3.5229 O   0  0  0  0  0  0  0  0  0  0  0  0
    0.2655   -2.6006    2.1757 O   0  0  0  0  0  0  0  0  0  0  0  0
   -2.0827    3.3963   -3.3405 O   0  0  0  0  0  0  0  0  0  0  0  0
   -0.6762    1.0460   -0.9807 N   0  0  0  0  0  0  0  0  0  0  0  0
   -0.7992   -0.5993    1.9181 N   0  0  0  0  0  0  0  0  0  0  0  0
   -2.2777   -1.0131    4.1328 N   0  0  0  0  0  0  0  0  0  0  0  0
   -1.4514   -0.1415   -0.5705 C   0  0  1  0  0  0  0  0  0  0  0  0
   -0.3717   -0.4077    0.5093 C   0  0  1  0  0  0  0  0  0  0  0  0
   -1.4106    2.2823   -1.2759 C   0  0  2  0  0  0  0  0  0  0  0  0
   -2.7230    2.2615   -0.4486 C   0  0  0  0  0  0  0  0  0  0  0  0
    0.1353    0.9977    0.1242 C   0  0  0  0  0  0  0  0  0  0  0  0
   -0.9605   -1.7188    4.1298 C   0  0  0  0  0  0  0  0  0  0  0  0
   -3.9550    2.8775   -1.1255 C   0  0  0  0  0  0  0  0  0  0  0  0
   -2.5255    2.9774    0.9014 C   0  0  0  0  0  0  0  0  0  0  0  0
   -0.0094   -0.9312    5.0530 C   0  0  0  0  0  0  0  0  0  0  0  0
   -1.1643   -3.1621    4.6378 C   0  0  0  0  0  0  0  0  0  0  0  0
   -0.4373   -1.7133    2.6523 C   0  0  0  0  0  0  0  0  0  0  0  0
   -1.5530    2.4375   -2.7971 C   0  0  0  0  0  0  0  0  0  0  0  0
    1.2875   -1.6830    5.3596 C   0  0  0  0  0  0  0  0  0  0  0  0
    0.1349   -3.8898    4.9949 C   0  0  0  0  0  0  0  0  0  0  0  0
    1.0101   -3.0684    5.9320 C   0  0  0  0  0  0  0  0  0  0  0  0
  1 12  1  0  0  0  0
  2 13  2  0  0  0  0
  3 20  1  0  0  0  0
  4 19  2  0  0  0  0
  5 20  2  0  0  0  0
  6  9  1  0  0  0  0
  6 11  1  0  0  0  0
  6 13  1  0  0  0  0
  7 19  1  0  0  0  0
  8 14  1  0  0  0  0
  9  1  1  1  0  0  0
  9 10  1  0  0  0  0
 10 13  1  0  0  0  0
 10  7  1  1  0  0  0
 11 12  1  0  0  0  0
 11 20  1  6  0  0  0
 12 15  1  0  0  0  0
 12 16  1  0  0  0  0
 14 17  1  0  0  0  0
 14 18  1  0  0  0  0
 14 19  1  0  0  0  0
 17 21  1  0  0  0  0
 18 22  1  0  0  0  0
 21 23  1  0  0  0  0
 22 23  1  0  0  0  0
M  END
