4838
 OpenBabel10141417513D

 20 21  0  0  1  0  0  0  0  0999 V2000
    1.2086   -0.1516    0.5923 O   0  0  0  0  0  0  0  0  0  0  0  0
    0.2535   -1.0064   -1.3192 O   0  0  0  0  0  0  0  0  0  0  0  0
    2.2991   -0.0445   -2.8790 O   0  0  0  0  0  0  0  0  0  0  0  0
   -0.2969   -3.0004    2.6132 C   0  0  0  0  0  0  0  0  0  0  0  0
   -0.2546   -2.2315    3.9515 C   0  0  0  0  0  0  0  0  0  0  0  0
   -0.6547   -0.7535    3.8165 C   0  0  3  0  0  0  0  0  0  0  0  0
    0.5588   -2.2588    1.5713 C   0  0  0  0  0  0  0  0  0  0  0  0
    0.1966   -0.7783    1.4059 C   0  0  3  0  0  0  0  0  0  0  0  0
    0.1960   -0.0500    2.7533 C   0  0  0  0  0  0  0  0  0  0  0  0
    0.2933   -4.4081    2.8196 C   0  0  0  0  0  0  0  0  0  0  0  0
   -1.7456   -3.1595    2.1157 C   0  0  0  0  0  0  0  0  0  0  0  0
   -0.5208   -0.0441    5.1652 C   0  0  0  0  0  0  0  0  0  0  0  0
    1.1444   -0.3802   -0.7460 C   0  0  0  0  0  0  0  0  0  0  0  0
    2.4032    0.1247   -1.4636 C   0  0  3  0  0  0  0  0  0  0  0  0
    2.7181    1.5732   -1.1639 C   0  0  0  0  0  0  0  0  0  0  0  0
    3.8884    1.9151   -0.4682 C   0  0  0  0  0  0  0  0  0  0  0  0
    1.8369    2.5964   -1.5469 C   0  0  0  0  0  0  0  0  0  0  0  0
    4.1647    3.2470   -0.1546 C   0  0  0  0  0  0  0  0  0  0  0  0
    2.1148    3.9272   -1.2304 C   0  0  0  0  0  0  0  0  0  0  0  0
    3.2771    4.2517   -0.5336 C   0  0  0  0  0  0  0  0  0  0  0  0
  1  8  1  0  0  0  0
  1 13  1  0  0  0  0
  2 13  2  0  0  0  0
  3 14  1  0  0  0  0
  4  5  1  0  0  0  0
  4  7  1  0  0  0  0
  4 10  1  0  0  0  0
  4 11  1  0  0  0  0
  5  6  1  0  0  0  0
  6  9  1  0  0  0  0
  6 12  1  0  0  0  0
  7  8  1  0  0  0  0
  8  9  1  0  0  0  0
 13 14  1  0  0  0  0
 14 15  1  0  0  0  0
 15 16  2  0  0  0  0
 15 17  1  0  0  0  0
 16 18  1  0  0  0  0
 17 19  2  0  0  0  0
 18 20  2  0  0  0  0
 19 20  1  0  0  0  0
M  END
