924
 OpenBabel10141417513D

 21 23  0  0  0  0  0  0  0  0999 V2000
    2.3904    0.7943    0.0951 N   0  0  0  0  0  0  0  0  0  0  0  0
    1.1723    5.3769    0.3073 C   0  0  0  0  0  0  0  0  0  0  0  0
    0.8910    6.6227   -0.4421 C   0  0  0  0  0  0  0  0  0  0  0  0
    2.1444    5.3742    1.4240 C   0  0  0  0  0  0  0  0  0  0  0  0
    0.8984    2.8252    0.3190 C   0  0  0  0  0  0  0  0  0  0  0  0
    0.6552    4.2271   -0.1827 C   0  0  0  0  0  0  0  0  0  0  0  0
    2.1141    2.1729   -0.3639 C   0  0  0  0  0  0  0  0  0  0  0  0
    1.9392    7.3411   -1.0498 C   0  0  0  0  0  0  0  0  0  0  0  0
    3.4821    5.7538    1.2037 C   0  0  0  0  0  0  0  0  0  0  0  0
    3.3429    6.8791   -1.0588 C   0  0  0  0  0  0  0  0  0  0  0  0
    3.9975    6.1946   -0.1076 C   0  0  0  0  0  0  0  0  0  0  0  0
   -0.4275    7.1029   -0.5240 C   0  0  0  0  0  0  0  0  0  0  0  0
    1.7267    5.0174    2.7170 C   0  0  0  0  0  0  0  0  0  0  0  0
    1.6311    8.5165   -1.7542 C   0  0  0  0  0  0  0  0  0  0  0  0
    4.3926    5.6722    2.2703 C   0  0  0  0  0  0  0  0  0  0  0  0
   -0.7122    8.2780   -1.2182 C   0  0  0  0  0  0  0  0  0  0  0  0
    2.6390    4.9635    3.7701 C   0  0  0  0  0  0  0  0  0  0  0  0
    0.3166    8.9838   -1.8339 C   0  0  0  0  0  0  0  0  0  0  0  0
    3.9750    5.2767    3.5430 C   0  0  0  0  0  0  0  0  0  0  0  0
    3.4807    0.2218   -0.7016 C   0  0  0  0  0  0  0  0  0  0  0  0
    2.7554    0.7562    1.5141 C   0  0  0  0  0  0  0  0  0  0  0  0
  1  7  1  0  0  0  0
  1 20  1  0  0  0  0
  1 21  1  0  0  0  0
  2  3  1  0  0  0  0
  2  4  1  0  0  0  0
  2  6  2  0  0  0  0
  3  8  1  0  0  0  0
  3 12  2  0  0  0  0
  4  9  1  0  0  0  0
  4 13  2  0  0  0  0
  5  6  1  0  0  0  0
  5  7  1  0  0  0  0
  8 10  1  0  0  0  0
  8 14  2  0  0  0  0
  9 11  1  0  0  0  0
  9 15  2  0  0  0  0
 10 11  2  0  0  0  0
 12 16  1  0  0  0  0
 13 17  1  0  0  0  0
 14 18  1  0  0  0  0
 15 19  1  0  0  0  0
 16 18  2  0  0  0  0
 17 19  2  0  0  0  0
M  END
