979
 OpenBabel10141417483D

 21 22  0  0  1  0  0  0  0  0999 V2000
   -2.2899    3.5219    0.6520 O   0  0  0  0  0  0  0  0  0  0  0  0
    1.7783    2.1021   -1.2184 O   0  0  0  0  0  0  0  0  0  0  0  0
    1.8077    2.2060    1.0621 O   0  0  0  0  0  0  0  0  0  0  0  0
    4.7142    3.0985   -1.7010 N   0  0  0  0  0  0  0  0  0  0  0  0
   -0.9785    3.0458    1.0361 C   0  0  0  0  0  0  0  0  0  0  0  0
   -1.1646    1.5563    1.4051 C   0  0  0  0  0  0  0  0  0  0  0  0
   -0.5854    3.7432    2.3586 C   0  0  0  0  0  0  0  0  0  0  0  0
   -1.5413    1.5799    2.8816 C   0  0  0  0  0  0  0  0  0  0  0  0
   -0.6652    2.6790    3.4514 C   0  0  0  0  0  0  0  0  0  0  0  0
   -0.0177    3.2942   -0.1679 C   0  0  3  0  0  0  0  0  0  0  0  0
    0.1856    4.7903   -0.4681 C   0  0  0  0  0  0  0  0  0  0  0  0
    1.2816    2.4982   -0.0188 C   0  0  0  0  0  0  0  0  0  0  0  0
    1.1873    5.5546    0.1485 C   0  0  0  0  0  0  0  0  0  0  0  0
   -0.6981    5.4576   -1.3387 C   0  0  0  0  0  0  0  0  0  0  0  0
    2.9676    1.2775   -1.2022 C   0  0  0  0  0  0  0  0  0  0  0  0
    1.3258    6.9217   -0.1194 C   0  0  0  0  0  0  0  0  0  0  0  0
   -0.5712    6.8287   -1.5935 C   0  0  0  0  0  0  0  0  0  0  0  0
    0.4474    7.5594   -0.9900 C   0  0  0  0  0  0  0  0  0  0  0  0
    4.2792    2.0017   -0.8031 C   0  0  0  0  0  0  0  0  0  0  0  0
    3.7394    4.1879   -1.7138 C   0  0  0  0  0  0  0  0  0  0  0  0
    6.0119    3.6308   -1.2638 C   0  0  0  0  0  0  0  0  0  0  0  0
  1  5  1  0  0  0  0
  2 12  1  0  0  0  0
  2 15  1  0  0  0  0
  3 12  2  0  0  0  0
  4 19  1  0  0  0  0
  4 20  1  0  0  0  0
  4 21  1  0  0  0  0
  5  6  1  0  0  0  0
  5  7  1  0  0  0  0
  5 10  1  0  0  0  0
  6  8  1  0  0  0  0
  7  9  1  0  0  0  0
  8  9  1  0  0  0  0
 10 11  1  0  0  0  0
 10 12  1  0  0  0  0
 11 13  2  0  0  0  0
 11 14  1  0  0  0  0
 13 16  1  0  0  0  0
 14 17  2  0  0  0  0
 15 19  1  0  0  0  0
 16 18  2  0  0  0  0
 17 18  1  0  0  0  0
M  END
