942
 OpenBabel10141417513D

 21 23  0  0  1  0  0  0  0  0999 V2000
    1.2224   -0.6098    0.0533 O   0  0  0  0  0  0  0  0  0  0  0  0
    4.2553    3.1373    0.9984 N   0  0  0  0  0  0  0  0  0  0  0  0
    3.1647   -0.7113   -1.3426 C   0  0  0  0  0  0  0  0  0  0  0  0
    2.6505   -0.3592    0.0942 C   0  0  3  0  0  0  0  0  0  0  0  0
    4.6875   -0.8368   -1.5539 C   0  0  0  0  0  0  0  0  0  0  0  0
    2.6907    0.2025   -2.4844 C   0  0  0  0  0  0  0  0  0  0  0  0
    4.9789   -0.2561   -2.9378 C   0  0  0  0  0  0  0  0  0  0  0  0
    3.6264   -0.1671   -3.6254 C   0  0  0  0  0  0  0  0  0  0  0  0
    2.7720    1.1527    0.4764 C   0  0  0  0  0  0  0  0  0  0  0  0
    4.1948    1.7072    0.6317 C   0  0  0  0  0  0  0  0  0  0  0  0
    3.1391   -1.3324    1.1880 C   0  0  0  0  0  0  0  0  0  0  0  0
    5.6479    3.6276    1.0064 C   0  0  0  0  0  0  0  0  0  0  0  0
    3.5959    3.4908    2.2640 C   0  0  0  0  0  0  0  0  0  0  0  0
    6.4712    3.1631    2.2141 C   0  0  0  0  0  0  0  0  0  0  0  0
    4.3277    2.9883    3.5089 C   0  0  0  0  0  0  0  0  0  0  0  0
    5.7684    3.4859    3.5285 C   0  0  0  0  0  0  0  0  0  0  0  0
    3.5328   -2.6529    0.8856 C   0  0  0  0  0  0  0  0  0  0  0  0
    3.1374   -0.9811    2.5504 C   0  0  0  0  0  0  0  0  0  0  0  0
    3.9603   -3.5432    1.8775 C   0  0  0  0  0  0  0  0  0  0  0  0
    3.5588   -1.8703    3.5468 C   0  0  0  0  0  0  0  0  0  0  0  0
    3.9782   -3.1519    3.2071 C   0  0  0  0  0  0  0  0  0  0  0  0
  1  4  1  0  0  0  0
  2 10  1  0  0  0  0
  2 12  1  0  0  0  0
  2 13  1  0  0  0  0
  3  4  1  0  0  0  0
  3  5  1  0  0  0  0
  3  6  1  0  0  0  0
  4  9  1  0  0  0  0
  4 11  1  0  0  0  0
  5  7  1  0  0  0  0
  6  8  1  0  0  0  0
  7  8  1  0  0  0  0
  9 10  1  0  0  0  0
 11 17  2  0  0  0  0
 11 18  1  0  0  0  0
 12 14  1  0  0  0  0
 13 15  1  0  0  0  0
 14 16  1  0  0  0  0
 15 16  1  0  0  0  0
 17 19  1  0  0  0  0
 18 20  2  0  0  0  0
 19 21  2  0  0  0  0
 20 21  1  0  0  0  0
M  END
