
 OpenBabel10141417523D

 29 33  0  0  0  0  0  0  0  0999 V2000
   -0.0415    0.5452   -0.0279 C   0  0  1  0  0  0  0  0  0  0  0  0
   -0.8390   -0.7263   -0.1924 C   0  0  2  0  0  0  0  0  0  0  0  0
   -2.1639   -0.8466    0.4357 C   0  0  0  0  0  0  0  0  0  0  0  0
   -2.4424    0.0658    1.5579 C   0  0  0  0  0  0  0  0  0  0  0  0
   -1.7394    1.1930    1.7927 C   0  0  0  0  0  0  0  0  0  0  0  0
   -0.5957    1.6821    0.8665 C   0  0  1  0  0  0  0  0  0  0  0  0
    0.6028    2.2265    1.7534 C   0  0  2  0  0  0  0  0  0  0  0  0
   -2.0360    2.0370    2.9471 C   0  0  0  0  0  0  0  0  0  0  0  0
   -1.1702    2.9394    3.4270 C   0  0  0  0  0  0  0  0  0  0  0  0
    0.2068    3.2163    2.8745 C   0  0  1  0  0  0  0  0  0  0  0  0
    2.5452    3.9278    1.5368 C   0  0  0  0  0  0  0  0  0  0  0  0
    1.8389    2.6998    0.9563 C   0  0  0  0  0  0  0  0  0  0  0  0
    0.3662    4.7373    2.5697 C   0  0  1  0  0  0  0  0  0  0  0  0
    1.6138    5.1528    1.7030 C   0  0  1  0  0  0  0  0  0  0  0  0
    2.3183    6.3380    2.5048 C   0  0  2  0  0  0  0  0  0  0  0  0
    0.4980    5.5183    3.8987 C   0  0  0  0  0  0  0  0  0  0  0  0
    1.9337    5.9939    3.9560 C   0  0  0  0  0  0  0  0  0  0  0  0
   -2.9597   -1.7075    0.0840 O   0  0  0  0  0  0  0  0  0  0  0  0
   -3.5834    1.9258    3.7370 Cl  0  0  0  0  0  0  0  0  0  0  0  0
    1.7740    7.7837    2.2138 C   0  0  0  0  0  0  0  0  0  0  0  0
    2.6752    8.9813    2.4463 C   0  0  0  0  0  0  0  0  0  0  0  0
    0.5867    7.9937    1.9452 O   0  0  0  0  0  0  0  0  0  0  0  0
    3.7643    6.3027    2.5414 O   0  0  0  0  0  0  0  0  0  0  0  0
    1.1349    5.6075    0.2998 C   0  0  0  0  0  0  0  0  0  0  0  0
   -1.1880    2.7946   -0.0328 C   0  0  0  0  0  0  0  0  0  0  0  0
   -0.6359    0.1779   -1.3741 C   0  0  0  0  0  0  0  0  0  0  0  0
    4.4905    6.6341    1.4412 C   0  0  0  0  0  0  0  0  0  0  0  0
    5.8685    7.0597    1.8626 C   0  0  0  0  0  0  0  0  0  0  0  0
    4.0626    6.7331    0.3112 O   0  0  0  0  0  0  0  0  0  0  0  0
  1  2  1  0  0  0  0
  1  6  1  0  0  0  0
  1 26  1  1  0  0  0
  2  3  1  6  0  0  0
  2 26  1  0  0  0  0
  3  4  1  0  0  0  0
  3 18  2  0  0  0  0
  4  5  2  0  0  0  0
  5  8  1  0  0  0  0
  6  5  1  0  0  0  0
  6 25  1  6  0  0  0
  7  6  1  0  0  0  0
  7 10  1  0  0  0  0
  7 12  1  6  0  0  0
  8  9  2  0  0  0  0
  8 19  1  0  0  0  0
 10  9  1  1  0  0  0
 10 13  1  0  0  0  0
 11 12  1  0  0  0  0
 11 14  1  0  0  0  0
 13 16  1  6  0  0  0
 14 13  1  0  0  0  0
 14 24  1  6  0  0  0
 15 14  1  0  0  0  0
 15 17  1  0  0  0  0
 15 20  1  6  0  0  0
 15 23  1  0  0  0  0
 16 17  1  0  0  0  0
 20 21  1  0  0  0  0
 20 22  2  0  0  0  0
 23 27  1  0  0  0  0
 27 28  1  0  0  0  0
 27 29  2  0  0  0  0
M  END
