
 OpenBabel10141417523D

 35 38  0  0  0  0  0  0  0  0999 V2000
   -1.3473   -5.3711   -4.4898 C   0  0  0  0  0  0  0  0  0  0  0  0
   -2.2411   -4.3632   -4.1731 C   0  0  0  0  0  0  0  0  0  0  0  0
   -3.2288   -3.9865   -5.0806 C   0  0  0  0  0  0  0  0  0  0  0  0
   -3.3259   -4.6305   -6.3135 C   0  0  0  0  0  0  0  0  0  0  0  0
   -2.4343   -5.6556   -6.6284 C   0  0  0  0  0  0  0  0  0  0  0  0
   -1.4489   -6.0246   -5.7128 C   0  0  0  0  0  0  0  0  0  0  0  0
   -0.5971   -7.0002   -6.0551 F   0  0  0  0  0  0  0  0  0  0  0  0
   -2.1898   -3.7114   -3.0050 F   0  0  0  0  0  0  0  0  0  0  0  0
   -0.0924   -5.8429   -3.3758 S   0  0  0  0  0  0  0  0  0  0  0  0
    1.3329   -5.5720   -4.2426 N   0  0  0  0  0  0  0  0  0  0  0  0
    1.9220   -4.2746   -4.1761 C   0  0  0  0  0  0  0  0  0  0  0  0
    2.8897   -4.0466   -3.2025 C   0  0  0  0  0  0  0  0  0  0  0  0
    3.5385   -2.8200   -3.1625 C   0  0  0  0  0  0  0  0  0  0  0  0
    3.2440   -1.8434   -4.1228 C   0  0  0  0  0  0  0  0  0  0  0  0
    2.2448   -2.0398   -5.0996 C   0  0  0  0  0  0  0  0  0  0  0  0
    1.5399   -3.2465   -5.0530 C   0  0  0  0  0  0  0  0  0  0  0  0
    0.5018   -3.4607   -5.8744 F   0  0  0  0  0  0  0  0  0  0  0  0
    1.9938   -0.9632   -6.0749 C   0  0  0  0  0  0  0  0  0  0  0  0
    2.2411    0.3525   -5.6401 N   0  0  0  0  0  0  0  0  0  0  0  0
    1.9915    1.2380   -6.5807 C   0  0  0  0  0  0  0  0  0  0  0  0
    1.5048    0.5397   -8.0708 S   0  0  0  0  0  0  0  0  0  0  0  0
    1.5788   -1.0686   -7.4083 C   0  0  0  0  0  0  0  0  0  0  0  0
    1.2442   -2.1849   -8.3277 C   0  0  0  0  0  0  0  0  0  0  0  0
    1.8285   -3.4306   -8.2521 C   0  0  0  0  0  0  0  0  0  0  0  0
    1.3689   -4.3741   -9.1407 C   0  0  0  0  0  0  0  0  0  0  0  0
    0.4452   -4.1225  -10.0800 N   0  0  0  0  0  0  0  0  0  0  0  0
   -0.0445   -2.8838  -10.1073 C   0  0  0  0  0  0  0  0  0  0  0  0
    0.3201   -1.9000   -9.2793 N   0  0  0  0  0  0  0  0  0  0  0  0
    2.0998    2.7629   -6.4161 C   0  0  0  0  0  0  0  0  0  0  0  0
    3.1365    3.3607   -7.3888 C   0  0  0  0  0  0  0  0  0  0  0  0
    0.7346    3.4308   -6.6774 C   0  0  0  0  0  0  0  0  0  0  0  0
    2.5398    3.1327   -4.9827 C   0  0  0  0  0  0  0  0  0  0  0  0
   -0.9554   -2.6042  -11.1065 N   0  0  0  0  0  0  0  0  0  0  0  0
   -0.0740   -4.9624   -2.2229 O   0  0  0  0  0  0  0  0  0  0  0  0
   -0.1740   -7.2712   -3.1927 O   0  0  0  0  0  0  0  0  0  0  0  0
  1  2  2  0  0  0  0
  1  6  1  0  0  0  0
  1  9  1  0  0  0  0
  2  3  1  0  0  0  0
  2  8  1  0  0  0  0
  3  4  2  0  0  0  0
  4  5  1  0  0  0  0
  5  6  2  0  0  0  0
  6  7  1  0  0  0  0
  9 10  1  0  0  0  0
  9 34  2  0  0  0  0
  9 35  2  0  0  0  0
 10 11  1  0  0  0  0
 11 12  2  0  0  0  0
 11 16  1  0  0  0  0
 12 13  1  0  0  0  0
 13 14  2  0  0  0  0
 14 15  1  0  0  0  0
 15 16  2  0  0  0  0
 15 18  1  0  0  0  0
 16 17  1  0  0  0  0
 18 19  1  0  0  0  0
 18 22  2  0  0  0  0
 19 20  2  0  0  0  0
 20 21  1  0  0  0  0
 20 29  1  0  0  0  0
 21 22  1  0  0  0  0
 22 23  1  0  0  0  0
 23 24  1  0  0  0  0
 23 28  2  0  0  0  0
 24 25  2  0  0  0  0
 25 26  1  0  0  0  0
 26 27  2  0  0  0  0
 27 28  1  0  0  0  0
 27 33  1  0  0  0  0
 29 30  1  0  0  0  0
 29 31  1  0  0  0  0
 29 32  1  0  0  0  0
M  END
