
 OpenBabel10141417493D

 13 13  0  0  0  0  0  0  0  0999 V2000
   -1.5911    1.4945    0.4272 C   0  0  0  0  0  0  0  0  0  0  0  0
   -0.9426    0.3548    0.0583 N   0  0  0  0  0  0  0  0  0  0  0  0
   -0.7840    2.5293    0.4231 N   0  0  0  0  0  0  0  0  0  0  0  0
    0.4579    2.0223    0.0376 C   0  0  0  0  0  0  0  0  0  0  0  0
    1.6487    2.8578   -0.0859 C   0  0  0  0  0  0  0  0  0  0  0  0
    0.3759    0.6577   -0.1913 C   0  0  0  0  0  0  0  0  0  0  0  0
    1.2869   -0.2742   -0.5586 N   0  0  0  0  0  0  0  0  0  0  0  0
    0.8534   -1.4308   -0.7206 N   0  0  0  0  0  0  0  0  0  0  0  0
    1.2832   -3.5520   -1.6683 C   0  0  0  0  0  0  0  0  0  0  0  0
    1.8183   -2.3364   -1.0840 N   0  0  0  0  0  0  0  0  0  0  0  0
    3.1057   -1.8718   -1.5898 C   0  0  0  0  0  0  0  0  0  0  0  0
    1.4191    4.1724    0.2155 N   0  0  0  0  0  0  0  0  0  0  0  0
    2.7574    2.4659   -0.4228 O   0  0  0  0  0  0  0  0  0  0  0  0
  1  2  1  0  0  0  0
  1  3  2  0  0  0  0
  2  6  1  0  0  0  0
  4  3  1  0  0  0  0
  4  5  1  0  0  0  0
  5 13  2  0  0  0  0
  5 12  1  0  0  0  0
  6  4  2  0  0  0  0
  7  6  1  0  0  0  0
  7  8  2  0  0  0  0
  8 10  1  0  0  0  0
 10  9  1  0  0  0  0
 10 11  1  0  0  0  0
M  END
