
 OpenBabel10141417513D

 90 96  0  0  0  0  0  0  0  0999 V2000
    4.3792    9.9438 -127.6820 C   0  0  0  0  0  0  0  0  0  0  0  0
    2.9292    9.8432 -127.4429 C   0  0  0  0  0  0  0  0  0  0  0  0
    2.0939   10.6717 -128.1663 O   0  0  0  0  0  0  0  0  0  0  0  0
    4.0615   12.0742 -128.4922 C   0  0  0  0  0  0  0  0  0  0  0  0
    2.6623   11.8632 -128.5844 C   0  0  0  0  0  0  0  0  0  0  0  0
    4.9222   11.0136 -128.1588 N   0  0  0  0  0  0  0  0  0  0  0  0
    5.1881    8.7593 -127.3524 C   0  0  0  0  0  0  0  0  0  0  0  0
    2.5015    9.0709 -126.4411 C   0  0  0  0  0  0  0  0  0  0  0  0
    6.3152    8.2904 -128.2068 C   0  0  0  0  0  0  0  0  0  0  0  0
    4.8975    8.1759 -126.1743 C   0  0  0  0  0  0  0  0  0  0  0  0
    3.5459    8.4811 -125.5635 C   0  0  0  0  0  0  0  0  0  0  0  0
    1.0720    8.8919 -126.0603 C   0  0  0  0  0  0  0  0  0  0  0  0
    7.3183    7.7644 -127.7187 O   0  0  0  0  0  0  0  0  0  0  0  0
    5.6915    7.2972 -125.4420 N   0  0  0  0  0  0  0  0  0  0  0  0
    4.5924   13.3257 -128.8322 C   0  0  0  0  0  0  0  0  0  0  0  0
    1.8017   12.8583 -129.0665 C   0  0  0  0  0  0  0  0  0  0  0  0
    3.3084    8.2120 -124.3880 O   0  0  0  0  0  0  0  0  0  0  0  0
    6.0477   13.6181 -128.6163 C   0  0  0  0  0  0  0  0  0  0  0  0
    3.7307   14.2971 -129.3739 C   0  0  0  0  0  0  0  0  0  0  0  0
    2.3637   14.0522 -129.5186 C   0  0  0  0  0  0  0  0  0  0  0  0
    0.3127   12.6741 -129.1350 C   0  0  0  0  0  0  0  0  0  0  0  0
    6.7170   13.0629 -127.7207 O   0  0  0  0  0  0  0  0  0  0  0  0
    6.6047   14.5824 -129.4131 N   0  0  0  0  0  0  0  0  0  0  0  0
    7.9812   15.0757 -129.2273 C   0  0  2  0  0  0  0  0  0  0  0  0
    8.0501   15.7837 -127.8657 C   0  0  0  0  0  0  0  0  0  0  0  0
    8.2734   16.1128 -130.3441 C   0  0  2  0  0  0  0  0  0  0  0  0
    9.6781   16.2420 -130.6072 O   0  0  0  0  0  0  0  0  0  0  0  0
   10.0945   15.9328 -131.8649 C   0  0  0  0  0  0  0  0  0  0  0  0
   12.1253   16.9468 -125.6642 N   0  0  0  0  0  0  0  0  0  0  0  0
   12.2873   16.5581 -124.2692 C   0  0  0  0  0  0  0  0  0  0  0  0
   13.3812   17.4811 -126.2010 C   0  0  1  0  0  0  0  0  0  0  0  0
   13.7746   16.7068 -123.9639 C   0  0  0  0  0  0  0  0  0  0  0  0
   14.2356   17.7641 -124.9594 C   0  0  0  0  0  0  0  0  0  0  0  0
   14.1401   16.4491 -127.0814 C   0  0  0  0  0  0  0  0  0  0  0  0
   14.5433   16.8484 -128.3569 N   0  0  0  0  0  0  0  0  0  0  0  0
   13.6476   17.6340 -129.2117 C   0  0  0  0  0  0  0  0  0  0  0  0
   15.4731   15.9623 -129.0428 C   0  0  0  0  0  0  0  0  0  0  0  0
   12.6287   16.7706 -129.9828 C   0  0  0  0  0  0  0  0  0  0  0  0
   12.3518   15.6214 -129.6435 O   0  0  0  0  0  0  0  0  0  0  0  0
   12.0927   17.3649 -131.1242 N   0  0  0  0  0  0  0  0  0  0  0  0
   11.6852   18.7660 -131.0995 C   0  0  0  0  0  0  0  0  0  0  0  0
   11.4822   16.5270 -132.1817 C   0  0  1  0  0  0  0  0  0  0  0  0
   12.4347   15.4953 -132.8566 C   0  0  0  0  0  0  0  0  0  0  0  0
   12.7297   14.2337 -132.0449 C   0  0  0  0  0  0  0  0  0  0  0  0
   13.7540   16.1381 -133.3042 C   0  0  0  0  0  0  0  0  0  0  0  0
   14.4756   15.3530 -126.6198 O   0  0  0  0  0  0  0  0  0  0  0  0
    9.4179   15.3371 -132.6961 O   0  0  0  0  0  0  0  0  0  0  0  0
    7.7636   17.5319 -130.0558 C   0  0  0  0  0  0  0  0  0  0  0  0
   10.9917   17.5532 -127.5304 O   0  0  0  0  0  0  0  0  0  0  0  0
    7.1325   16.5411 -127.5458 O   0  0  0  0  0  0  0  0  0  0  0  0
    9.1835   15.5554 -127.1208 N   0  0  0  0  0  0  0  0  0  0  0  0
   10.9704   16.9915 -126.4262 C   0  0  0  0  0  0  0  0  0  0  0  0
    9.6545   16.3006 -125.9214 C   0  0  1  0  0  0  0  0  0  0  0  0
    9.2502   18.0683 -124.0973 C   0  0  0  0  0  0  0  0  0  0  0  0
    8.6578   17.3254 -125.3011 C   0  0  0  0  0  0  0  0  0  0  0  0
    7.3368   16.7176 -124.7876 C   0  0  0  0  0  0  0  0  0  0  0  0
    6.2108    8.3176 -129.5774 N   0  0  0  0  0  0  0  0  0  0  0  0
    5.1736    8.8933 -130.4724 C   0  0  2  0  0  0  0  0  0  0  0  0
    3.8038    8.1764 -130.2919 C   0  0  0  0  0  0  0  0  0  0  0  0
    5.6323    8.8753 -131.9626 C   0  0  2  0  0  0  0  0  0  0  0  0
    4.9294    9.9390 -132.6767 O   0  0  0  0  0  0  0  0  0  0  0  0
    4.8844    9.9859 -134.0332 C   0  0  0  0  0  0  0  0  0  0  0  0
   -0.6186    9.0442 -132.2093 N   0  0  0  0  0  0  0  0  0  0  0  0
   -1.8707    8.7463 -131.5399 C   0  0  0  0  0  0  0  0  0  0  0  0
   -0.8592    9.9039 -133.3718 C   0  0  1  0  0  0  0  0  0  0  0  0
   -2.9697    9.2358 -132.4862 C   0  0  0  0  0  0  0  0  0  0  0  0
   -2.2556    9.4793 -133.8136 C   0  0  0  0  0  0  0  0  0  0  0  0
   -0.8422   11.4436 -133.1537 C   0  0  0  0  0  0  0  0  0  0  0  0
   -0.0995   12.2270 -134.0507 N   0  0  0  0  0  0  0  0  0  0  0  0
    0.7486   11.6834 -135.1265 C   0  0  0  0  0  0  0  0  0  0  0  0
    0.2049   13.5769 -133.6017 C   0  0  0  0  0  0  0  0  0  0  0  0
    2.0799   11.1589 -134.5727 C   0  0  0  0  0  0  0  0  0  0  0  0
    2.1607   10.6464 -133.4569 O   0  0  0  0  0  0  0  0  0  0  0  0
    3.2191   11.2980 -135.3344 N   0  0  0  0  0  0  0  0  0  0  0  0
    3.2418   11.4852 -136.7741 C   0  0  0  0  0  0  0  0  0  0  0  0
    4.4971   11.3779 -134.5943 C   0  0  1  0  0  0  0  0  0  0  0  0
    4.5242   12.5817 -133.6057 C   0  0  0  0  0  0  0  0  0  0  0  0
    4.1189   13.8895 -134.3101 C   0  0  0  0  0  0  0  0  0  0  0  0
    5.9177   12.7784 -133.0032 C   0  0  0  0  0  0  0  0  0  0  0  0
   -1.4990   11.9628 -132.2452 O   0  0  0  0  0  0  0  0  0  0  0  0
    5.1262    9.0407 -134.7780 O   0  0  0  0  0  0  0  0  0  0  0  0
    5.5265    7.4785 -132.5668 C   0  0  0  0  0  0  0  0  0  0  0  0
    0.8852   10.3594 -131.1261 O   0  0  0  0  0  0  0  0  0  0  0  0
    3.6054    7.3219 -129.4282 O   0  0  0  0  0  0  0  0  0  0  0  0
    2.8099    8.5829 -131.1442 N   0  0  0  0  0  0  0  0  0  0  0  0
    0.5456    9.2387 -131.4914 C   0  0  0  0  0  0  0  0  0  0  0  0
    1.4481    8.0126 -131.1817 C   0  0  1  0  0  0  0  0  0  0  0  0
    2.3081    5.6721 -131.8091 C   0  0  0  0  0  0  0  0  0  0  0  0
    1.3643    6.8273 -132.1812 C   0  0  0  0  0  0  0  0  0  0  0  0
    1.6083    7.2306 -133.6403 C   0  0  0  0  0  0  0  0  0  0  0  0
  2  1  1  0  0  0  0
  3  2  1  0  0  0  0
  4  6  1  0  0  0  0
  5  3  1  0  0  0  0
  5  4  1  0  0  0  0
  6  1  2  0  0  0  0
  7  1  1  0  0  0  0
  8  2  2  0  0  0  0
  9  7  1  0  0  0  0
 10  7  2  0  0  0  0
 11  8  1  0  0  0  0
 11 10  1  0  0  0  0
 12  8  1  0  0  0  0
 13  9  2  0  0  0  0
 14 10  1  0  0  0  0
 15  4  2  0  0  0  0
 16  5  2  0  0  0  0
 17 11  2  0  0  0  0
 18 15  1  0  0  0  0
 19 15  1  0  0  0  0
 20 16  1  0  0  0  0
 20 19  2  0  0  0  0
 21 16  1  0  0  0  0
 22 18  2  0  0  0  0
 23 18  1  0  0  0  0
 24 23  1  6  0  0  0
 25 24  1  0  0  0  0
 25 51  1  0  0  0  0
 26 24  1  0  0  0  0
 26 48  1  1  0  0  0
 27 26  1  0  0  0  0
 28 27  1  0  0  0  0
 29 52  1  0  0  0  0
 30 29  1  0  0  0  0
 31 29  1  1  0  0  0
 32 30  1  0  0  0  0
 33 31  1  0  0  0  0
 33 32  1  0  0  0  0
 34 31  1  0  0  0  0
 35 34  1  0  0  0  0
 36 35  1  0  0  0  0
 37 35  1  0  0  0  0
 38 36  1  0  0  0  0
 39 38  2  0  0  0  0
 40 38  1  0  0  0  0
 41 40  1  0  0  0  0
 42 28  1  0  0  0  0
 42 40  1  0  0  0  0
 42 43  1  1  0  0  0
 44 43  1  0  0  0  0
 45 43  1  0  0  0  0
 46 34  2  0  0  0  0
 47 28  2  0  0  0  0
 49 52  2  0  0  0  0
 50 25  2  0  0  0  0
 52 53  1  0  0  0  0
 53 51  1  0  0  0  0
 53 55  1  6  0  0  0
 55 54  1  0  0  0  0
 55 56  1  0  0  0  0
 57  9  1  0  0  0  0
 58 57  1  1  0  0  0
 59 58  1  0  0  0  0
 59 85  1  0  0  0  0
 60 58  1  0  0  0  0
 60 82  1  6  0  0  0
 61 60  1  0  0  0  0
 62 61  1  0  0  0  0
 63 86  1  0  0  0  0
 64 63  1  0  0  0  0
 65 63  1  1  0  0  0
 66 64  1  0  0  0  0
 67 65  1  0  0  0  0
 67 66  1  0  0  0  0
 68 65  1  0  0  0  0
 69 68  1  0  0  0  0
 70 69  1  0  0  0  0
 71 69  1  0  0  0  0
 72 70  1  0  0  0  0
 73 72  2  0  0  0  0
 74 72  1  0  0  0  0
 75 74  1  0  0  0  0
 76 62  1  0  0  0  0
 76 74  1  0  0  0  0
 76 77  1  1  0  0  0
 78 77  1  0  0  0  0
 79 77  1  0  0  0  0
 80 68  2  0  0  0  0
 81 62  2  0  0  0  0
 83 86  2  0  0  0  0
 84 59  2  0  0  0  0
 86 87  1  0  0  0  0
 87 85  1  0  0  0  0
 87 89  1  6  0  0  0
 89 88  1  0  0  0  0
 89 90  1  0  0  0  0
M  END
