
 OpenBabel10141417513D

  7  7  0  0  0  0  0  0  0  0999 V2000
   -0.7345    1.1710    0.0126 C   0  0  0  0  0  0  0  0  0  0  0  0
   -1.3221   -0.0848    0.0325 C   0  0  0  0  0  0  0  0  0  0  0  0
   -0.6263   -1.2406    0.0239 N   0  0  0  0  0  0  0  0  0  0  0  0
    0.7182   -1.1288    0.0215 C   0  0  0  0  0  0  0  0  0  0  0  0
    1.3926    0.0826   -0.0019 C   0  0  0  0  0  0  0  0  0  0  0  0
    0.6528    1.2606   -0.0610 C   0  0  0  0  0  0  0  0  0  0  0  0
    1.2899    2.5039    0.0421 N   0  0  0  0  0  0  0  0  0  0  0  0
  1  2  2  0  0  0  0
  2  3  1  0  0  0  0
  3  4  2  0  0  0  0
  4  5  1  0  0  0  0
  5  6  2  0  0  0  0
  6  1  1  0  0  0  0
  6  7  1  0  0  0  0
M  END
