
 OpenBabel10141417483D

 48 50  0  0  1  0  0  0  0  0999 V2000
    1.6245  -16.5442    0.1853 S   0  0  0  0  0  0  0  0  0  0  0  0
    5.2411  -13.9362   -2.0303 O   0  0  0  0  0  0  0  0  0  0  0  0
    0.6408  -15.4839    0.3461 O   0  0  0  0  0  0  0  0  0  0  0  0
    2.3517  -17.0553    1.3237 O   0  0  0  0  0  0  0  0  0  0  0  0
    3.0963  -13.3741   -2.6094 O   0  0  0  0  0  0  0  0  0  0  0  0
    6.4973  -15.0528    1.4709 O   0  0  0  0  0  0  0  0  0  0  0  0
    5.4325  -11.0682    2.1479 O   0  0  0  0  0  0  0  0  0  0  0  0
    8.2017   -8.8540   -1.6305 O   0  0  0  0  0  0  0  0  0  0  0  0
    3.5834   -9.5975   -0.6390 O   0  0  0  0  0  0  0  0  0  0  0  0
    2.2805   -7.0913    2.6760 O   0  0  0  0  0  0  0  0  0  0  0  0
    4.6717  -15.2140    0.1250 N   0  0  0  0  0  0  0  0  0  0  0  0
   -1.0490  -19.6135   -0.3718 N   0  0  0  0  0  0  0  0  0  0  0  0
    4.0280  -12.4160    1.0090 N   0  0  0  0  0  0  0  0  0  0  0  0
    5.9739   -8.3890   -1.3692 N   0  0  0  0  0  0  0  0  0  0  0  0
    2.7902  -15.9956   -1.0601 C   0  0  1  0  0  0  0  0  0  0  0  0
    3.4916  -14.7196   -0.5979 C   0  0  3  0  0  0  0  0  0  0  0  0
    3.9362  -16.9839   -1.2718 C   0  0  0  0  0  0  0  0  0  0  0  0
    4.9960  -16.5762   -0.2538 C   0  0  0  0  0  0  0  0  0  0  0  0
    0.7975  -17.9132   -0.6109 C   0  0  0  0  0  0  0  0  0  0  0  0
    3.8937  -13.8959   -1.8415 C   0  0  0  0  0  0  0  0  0  0  0  0
    5.4966  -14.5139    0.9939 C   0  0  0  0  0  0  0  0  0  0  0  0
   -0.3648  -18.4460    0.2312 C   0  0  0  0  0  0  0  0  0  0  0  0
    5.8511  -13.3136   -3.1857 C   0  0  2  0  0  0  0  0  0  0  0  0
    5.7746  -14.2925   -4.3989 C   0  0  0  0  0  0  0  0  0  0  0  0
    7.3143  -12.9210   -2.7871 C   0  0  2  0  0  0  0  0  0  0  0  0
    5.1890  -13.1158    1.3089 C   0  0  0  0  0  0  0  0  0  0  0  0
   -2.1754  -20.1091    0.4462 C   0  0  0  0  0  0  0  0  0  0  0  0
   -1.4784  -19.4224   -1.7701 C   0  0  0  0  0  0  0  0  0  0  0  0
    6.5005  -15.6201   -4.1715 C   0  0  0  0  0  0  0  0  0  0  0  0
    6.2796  -13.6559   -5.7000 C   0  0  0  0  0  0  0  0  0  0  0  0
    7.9352  -13.8180   -1.7074 C   0  0  0  0  0  0  0  0  0  0  0  0
    7.5212  -11.4862   -2.3483 C   0  0  0  0  0  0  0  0  0  0  0  0
    6.0385  -12.2747    1.9946 C   0  0  0  0  0  0  0  0  0  0  0  0
   -1.7850  -20.6166    1.8303 C   0  0  0  0  0  0  0  0  0  0  0  0
   -2.4205  -18.2524   -2.0440 C   0  0  0  0  0  0  0  0  0  0  0  0
    4.2143  -11.2230    1.5424 C   0  0  0  0  0  0  0  0  0  0  0  0
    6.6216  -10.6326   -1.8361 C   0  0  0  0  0  0  0  0  0  0  0  0
    3.2580  -10.1028    1.7177 C   0  0  0  0  0  0  0  0  0  0  0  0
    7.0360   -9.2261   -1.5792 C   0  0  0  0  0  0  0  0  0  0  0  0
    3.0417   -9.3249    0.4360 C   0  0  0  0  0  0  0  0  0  0  0  0
    2.1106   -8.1264    0.5208 C   0  0  0  0  0  0  0  0  0  0  0  0
    2.7752   -7.0226    1.3387 C   0  0  1  0  0  0  0  0  0  0  0  0
    6.1444   -6.9616   -1.4713 C   0  0  0  0  0  0  0  0  0  0  0  0
    2.4782   -5.6437    0.8117 C   0  0  0  0  0  0  0  0  0  0  0  0
    4.8356   -6.3226   -1.1478 C   0  0  0  0  0  0  0  0  0  0  0  0
    3.3434   -4.8686    0.1257 C   0  0  0  0  0  0  0  0  0  0  0  0
    4.6635   -5.3431   -0.2462 C   0  0  0  0  0  0  0  0  0  0  0  0
    3.0090   -3.4732   -0.3193 C   0  0  0  0  0  0  0  0  0  0  0  0
  1  3  2  0  0  0  0
  1  4  2  0  0  0  0
  1 19  1  0  0  0  0
  2 20  1  0  0  0  0
  2 23  1  0  0  0  0
  5 20  2  0  0  0  0
  6 21  2  0  0  0  0
  7 33  1  0  0  0  0
  7 36  1  0  0  0  0
  8 39  2  0  0  0  0
  9 40  2  0  0  0  0
 11 16  1  0  0  0  0
 11 18  1  0  0  0  0
 11 21  1  0  0  0  0
 12 22  1  0  0  0  0
 12 27  1  0  0  0  0
 12 28  1  0  0  0  0
 13 26  1  0  0  0  0
 13 36  2  0  0  0  0
 14 39  1  0  0  0  0
 14 43  1  0  0  0  0
 15 16  1  0  0  0  0
 15 17  1  0  0  0  0
 15  1  1  1  0  0  0
 16 20  1  0  0  0  0
 17 18  1  0  0  0  0
 19 22  1  0  0  0  0
 21 26  1  0  0  0  0
 23 25  1  0  0  0  0
 23 24  1  6  0  0  0
 24 29  1  0  0  0  0
 24 30  1  0  0  0  0
 25 32  1  0  0  0  0
 25 31  1  1  0  0  0
 26 33  2  0  0  0  0
 27 34  1  0  0  0  0
 28 35  1  0  0  0  0
 32 37  2  0  0  0  0
 36 38  1  0  0  0  0
 37 39  1  0  0  0  0
 38 40  1  0  0  0  0
 40 41  1  0  0  0  0
 41 42  1  0  0  0  0
 42 44  1  0  0  0  0
 42 10  1  1  0  0  0
 43 45  1  0  0  0  0
 44 46  2  0  0  0  0
 45 47  2  0  0  0  0
 46 47  1  0  0  0  0
 46 48  1  0  0  0  0
M  END
