1406
 OpenBabel10141417483D

 25 29  0  0  1  0  0  0  0  0999 V2000
   -2.8054   -0.3491    2.7127 O   0  0  0  0  0  0  0  0  0  0  0  0
   -0.5043    8.3594    6.3070 O   0  0  0  0  0  0  0  0  0  0  0  0
   -1.1595    9.5769    6.5217 N   0  0  0  0  0  0  0  0  0  0  0  0
   -2.8301    3.2143    1.9495 C   0  0  2  0  0  0  0  0  0  0  0  0
   -2.0820    2.1525    2.8380 C   0  0  2  0  0  0  0  0  0  0  0  0
   -2.3625    4.6377    1.8813 C   0  0  1  0  0  0  0  0  0  0  0  0
   -2.6406    5.3514    3.2378 C   0  0  1  0  0  0  0  0  0  0  0  0
   -2.3091    6.9696    2.7637 C   0  0  2  0  0  0  0  0  0  0  0  0
   -2.5642    2.7645    4.2362 C   0  0  0  0  0  0  0  0  0  0  0  0
   -2.5173    0.8089    1.9682 C   0  0  2  0  0  0  0  0  0  0  0  0
   -2.0920    4.3691    4.3848 C   0  0  0  0  0  0  0  0  0  0  0  0
   -3.2728    2.6014    0.6425 C   0  0  0  0  0  0  0  0  0  0  0  0
   -0.9125    4.7379    1.4151 C   0  0  0  0  0  0  0  0  0  0  0  0
   -3.7302    1.2491    1.1647 C   0  0  0  0  0  0  0  0  0  0  0  0
   -0.8259    6.6256    3.0938 C   0  0  0  0  0  0  0  0  0  0  0  0
   -0.5822    1.9013    3.1723 C   0  0  0  0  0  0  0  0  0  0  0  0
   -0.1686    5.9733    1.9014 C   0  0  0  0  0  0  0  0  0  0  0  0
   -1.9573    8.5705    3.0400 C   0  0  0  0  0  0  0  0  0  0  0  0
   -3.8427    7.3739    2.8894 C   0  0  0  0  0  0  0  0  0  0  0  0
   -1.4983    0.4054    0.9177 C   0  0  0  0  0  0  0  0  0  0  0  0
   -0.1551    6.9219    4.2414 C   0  0  0  0  0  0  0  0  0  0  0  0
   -1.5866    8.8416    4.4413 C   0  0  0  0  0  0  0  0  0  0  0  0
   -0.7367    7.9439    5.0320 C   0  0  0  0  0  0  0  0  0  0  0  0
   -1.7448    9.8802    5.3573 C   0  0  0  0  0  0  0  0  0  0  0  0
   -0.8622    0.0423   -0.0645 C   0  0  0  0  0  0  0  0  0  0  0  0
  2  3  1  0  0  0  0
  2 23  1  0  0  0  0
  3 24  2  0  0  0  0
  4  5  1  0  0  0  0
  4  6  1  0  0  0  0
  4 12  1  1  0  0  0
  5  9  1  0  0  0  0
  5 10  1  0  0  0  0
  5 16  1  1  0  0  0
  6  7  1  0  0  0  0
  6 13  1  1  0  0  0
  7  8  1  0  0  0  0
  7 11  1  6  0  0  0
  8 15  1  0  0  0  0
  8 18  1  0  0  0  0
  8 19  1  6  0  0  0
  9 11  1  0  0  0  0
 10 14  1  0  0  0  0
 10  1  1  1  0  0  0
 10 20  1  0  0  0  0
 12 14  1  0  0  0  0
 13 17  1  0  0  0  0
 15 17  1  0  0  0  0
 15 21  2  0  0  0  0
 18 22  1  0  0  0  0
 20 25  3  0  0  0  0
 21 23  1  0  0  0  0
 22 23  2  0  0  0  0
 22 24  1  0  0  0  0
M  END
