
 OpenBabel10141417533D

 28 30  0  0  0  0  0  0  0  0999 V2000
   -3.0264   -0.5320    0.5959 C   0  0  2  0  0  0  0  0  0  0  0  0
   -3.0311    0.7315    1.4772 C   0  0  2  0  0  0  0  0  0  0  0  0
   -2.3411    1.9266    0.8108 C   0  0  1  0  0  0  0  0  0  0  0  0
   -0.9682    1.5092    0.2625 C   0  0  2  0  0  0  0  0  0  0  0  0
   -1.0565    0.2667   -0.6555 C   0  0  1  0  0  0  0  0  0  0  0  0
   -1.7635   -0.8192   -0.0343 O   0  0  0  0  0  0  0  0  0  0  0  0
   -1.4343    0.4593   -2.1194 C   0  0  0  0  0  0  0  0  0  0  0  0
   -4.1686   -0.5520   -0.4299 C   0  0  0  0  0  0  0  0  0  0  0  0
   -0.1187    1.2092    1.3954 O   0  0  0  0  0  0  0  0  0  0  0  0
   -2.3775    0.4475    2.7243 O   0  0  0  0  0  0  0  0  0  0  0  0
   -3.1654    2.4936   -0.2031 O   0  0  0  0  0  0  0  0  0  0  0  0
   -4.1530   -1.7802   -1.1601 O   0  0  0  0  0  0  0  0  0  0  0  0
   -1.4702   -0.6621   -2.9713 C   0  0  0  0  0  0  0  0  0  0  0  0
   -1.7291   -0.5549   -4.3534 C   0  0  0  0  0  0  0  0  0  0  0  0
   -1.9387    0.7307   -4.8810 C   0  0  0  0  0  0  0  0  0  0  0  0
   -1.9113    1.8521   -4.0549 C   0  0  0  0  0  0  0  0  0  0  0  0
   -1.6542    1.7171   -2.6917 C   0  0  0  0  0  0  0  0  0  0  0  0
   -2.2040    0.9997   -6.5683 Cl  0  0  0  0  0  0  0  0  0  0  0  0
   -1.7732   -1.7711   -5.2625 C   0  0  0  0  0  0  0  0  0  0  0  0
   -1.5369   -3.1204   -4.6229 C   0  0  0  0  0  0  0  0  0  0  0  0
   -0.2315   -3.6119   -4.4547 C   0  0  0  0  0  0  0  0  0  0  0  0
   -0.0216   -4.8605   -3.8613 C   0  0  0  0  0  0  0  0  0  0  0  0
   -1.0933   -5.6254   -3.4082 C   0  0  0  0  0  0  0  0  0  0  0  0
   -2.3946   -5.1379   -3.5704 C   0  0  0  0  0  0  0  0  0  0  0  0
   -2.6090   -3.8917   -4.1688 C   0  0  0  0  0  0  0  0  0  0  0  0
   -0.7718   -6.8413   -2.8661 O   0  0  0  0  0  0  0  0  0  0  0  0
   -1.7097   -7.3814   -1.9331 C   0  0  0  0  0  0  0  0  0  0  0  0
   -1.1888   -8.7196   -1.4370 C   0  0  0  0  0  0  0  0  0  0  0  0
  1  2  1  0  0  0  0
  1  8  1  6  0  0  0
  1  6  1  0  0  0  0
  2  3  1  0  0  0  0
  2 10  1  1  0  0  0
  3  4  1  0  0  0  0
  3 11  1  6  0  0  0
  4  9  1  1  0  0  0
  4  5  1  0  0  0  0
  5  6  1  0  0  0  0
  5  7  1  6  0  0  0
  7 13  2  0  0  0  0
  8 12  1  0  0  0  0
 13 14  1  0  0  0  0
 14 15  2  0  0  0  0
 14 19  1  0  0  0  0
 15 16  1  0  0  0  0
 15 18  1  0  0  0  0
 16 17  2  0  0  0  0
 17  7  1  0  0  0  0
 19 20  1  0  0  0  0
 20 21  2  0  0  0  0
 21 22  1  0  0  0  0
 22 23  2  0  0  0  0
 23 24  1  0  0  0  0
 23 26  1  0  0  0  0
 24 25  2  0  0  0  0
 25 20  1  0  0  0  0
 26 27  1  0  0  0  0
 27 28  1  0  0  0  0
M  END
