298
 OpenBabel10141417493D

 24 27  0  0  0  0  0  0  0  0999 V2000
    0.5850    1.3116   -0.4177 N   0  0  0  0  0  0  0  0  0  0  0  0
   -0.7284   -1.1104    0.7276 N   0  0  0  0  0  0  0  0  0  0  0  0
    2.2086    2.2077   -4.7507 N   0  0  0  0  0  0  0  0  0  0  0  0
    2.3972    0.0508   -4.5338 N   0  0  0  0  0  0  0  0  0  0  0  0
    2.4798    0.3565   -5.8731 N   0  0  0  0  0  0  0  0  0  0  0  0
    1.3155    0.2612    0.3400 C   0  0  0  0  0  0  0  0  0  0  0  0
   -0.8377    1.2622    0.0221 C   0  0  0  0  0  0  0  0  0  0  0  0
    0.7099    1.1454   -1.8811 C   0  0  0  0  0  0  0  0  0  0  0  0
    0.6861   -1.1534    0.2922 C   0  0  0  0  0  0  0  0  0  0  0  0
   -1.5140   -0.1334   -0.0601 C   0  0  0  0  0  0  0  0  0  0  0  0
    2.1555    1.3157   -2.3842 C   0  0  0  0  0  0  0  0  0  0  0  0
    2.0983    3.6205   -4.4806 C   0  0  0  0  0  0  0  0  0  0  0  0
    2.2425    1.1690   -3.8638 C   0  0  0  0  0  0  0  0  0  0  0  0
    1.7856    4.4301   -5.7416 C   0  0  0  0  0  0  0  0  0  0  0  0
    2.6431    3.9594   -6.9196 C   0  0  0  0  0  0  0  0  0  0  0  0
    2.3841    2.4806   -7.2307 C   0  0  0  0  0  0  0  0  0  0  0  0
    2.3774    1.6558   -5.9931 C   0  0  0  0  0  0  0  0  0  0  0  0
   -1.3802   -2.3504    0.8922 C   0  0  0  0  0  0  0  0  0  0  0  0
   -2.4097   -2.5047    1.8532 C   0  0  0  0  0  0  0  0  0  0  0  0
   -1.0247   -3.4842    0.1367 C   0  0  0  0  0  0  0  0  0  0  0  0
   -3.0509   -3.7508    2.0074 C   0  0  0  0  0  0  0  0  0  0  0  0
   -2.8390   -1.3816    2.7609 C   0  0  0  0  0  0  0  0  0  0  0  0
   -1.6546   -4.7199    0.3139 C   0  0  0  0  0  0  0  0  0  0  0  0
   -2.6712   -4.8528    1.2477 C   0  0  0  0  0  0  0  0  0  0  0  0
  1  6  1  0  0  0  0
  1  7  1  0  0  0  0
  1  8  1  0  0  0  0
  2  9  1  0  0  0  0
  2 10  1  0  0  0  0
  2 18  1  0  0  0  0
  3 12  1  0  0  0  0
  3 13  1  0  0  0  0
  3 17  1  0  0  0  0
  4  5  1  0  0  0  0
  4 13  2  0  0  0  0
  5 17  2  0  0  0  0
  6  9  1  0  0  0  0
  7 10  1  0  0  0  0
  8 11  1  0  0  0  0
 11 13  1  0  0  0  0
 12 14  1  0  0  0  0
 14 15  1  0  0  0  0
 15 16  1  0  0  0  0
 16 17  1  0  0  0  0
 18 19  1  0  0  0  0
 18 20  2  0  0  0  0
 19 21  2  0  0  0  0
 19 22  1  0  0  0  0
 20 23  1  0  0  0  0
 21 24  1  0  0  0  0
 23 24  2  0  0  0  0
M  END
