1264
 OpenBabel10141417503D

 38 41  0  0  1  0  0  0  0  0999 V2000
   -0.5249   -2.1732    4.0846 S   0  0  0  0  0  0  0  0  0  0  0  0
   -2.0658  -10.7470   -1.4741 O   0  0  0  0  0  0  0  0  0  0  0  0
   -0.2740   -9.4764   -2.2490 O   0  0  0  0  0  0  0  0  0  0  0  0
   -2.8998   -8.2187    0.1553 O   0  0  0  0  0  0  0  0  0  0  0  0
   -3.4286   -3.1090    2.8187 O   0  0  0  0  0  0  0  0  0  0  0  0
   -2.2503   -7.2841    2.1872 O   0  0  0  0  0  0  0  0  0  0  0  0
    0.4237   -1.9949    5.1434 O   0  0  0  0  0  0  0  0  0  0  0  0
   -1.8976   -1.9562    4.3760 O   0  0  0  0  0  0  0  0  0  0  0  0
   -3.2205   -6.0135    0.4941 N   0  0  0  0  0  0  0  0  0  0  0  0
   -0.3978   -3.7464    3.3328 N   0  0  0  0  0  0  0  0  0  0  0  0
    1.2639    2.0910    0.3519 N   0  0  0  0  0  0  0  0  0  0  0  0
   -0.7914   -9.4713    0.0966 C   0  0  2  0  0  0  0  0  0  0  0  0
   -0.7516  -10.2866   -1.1876 C   0  0  1  0  0  0  0  0  0  0  0  0
   -2.2577   -9.4214    0.5060 C   0  0  2  0  0  0  0  0  0  0  0  0
   -0.0988   -8.1753   -0.2531 C   0  0  0  0  0  0  0  0  0  0  0  0
   -2.8409  -10.6014   -0.2827 C   0  0  0  0  0  0  0  0  0  0  0  0
    0.2126   -8.2501   -1.7288 C   0  0  0  0  0  0  0  0  0  0  0  0
   -3.6238   -4.7932    1.2045 C   0  0  2  0  0  0  0  0  0  0  0  0
   -2.7613   -4.3115    2.4144 C   0  0  1  0  0  0  0  0  0  0  0  0
   -2.7477   -7.1671    1.0906 C   0  0  0  0  0  0  0  0  0  0  0  0
   -1.2641   -3.9852    2.0771 C   0  0  0  0  0  0  0  0  0  0  0  0
   -5.1905   -4.7530    1.4418 C   0  0  0  0  0  0  0  0  0  0  0  0
    0.8958   -4.5127    3.3903 C   0  0  0  0  0  0  0  0  0  0  0  0
    1.1624   -5.2369    4.7465 C   0  0  0  0  0  0  0  0  0  0  0  0
   -5.9092   -5.8542    2.2047 C   0  0  0  0  0  0  0  0  0  0  0  0
    0.0050   -1.0096    2.8644 C   0  0  0  0  0  0  0  0  0  0  0  0
    1.2121   -4.3078    5.9508 C   0  0  0  0  0  0  0  0  0  0  0  0
    0.2635   -6.4545    4.9839 C   0  0  0  0  0  0  0  0  0  0  0  0
   -6.6426   -5.5909    3.3751 C   0  0  0  0  0  0  0  0  0  0  0  0
   -6.0089   -7.1429    1.6630 C   0  0  0  0  0  0  0  0  0  0  0  0
    1.2961   -0.4865    2.9761 C   0  0  0  0  0  0  0  0  0  0  0  0
   -0.9093   -0.4534    1.9696 C   0  0  0  0  0  0  0  0  0  0  0  0
   -7.2719   -6.6309    4.0780 C   0  0  0  0  0  0  0  0  0  0  0  0
   -6.7813   -8.1328    2.2764 C   0  0  0  0  0  0  0  0  0  0  0  0
   -7.3191   -7.9118    3.5371 C   0  0  0  0  0  0  0  0  0  0  0  0
    1.6914    0.5782    2.1809 C   0  0  0  0  0  0  0  0  0  0  0  0
   -0.4668    0.5550    1.1073 C   0  0  0  0  0  0  0  0  0  0  0  0
    0.8503    1.0305    1.1648 C   0  0  0  0  0  0  0  0  0  0  0  0
  1  7  2  0  0  0  0
  1  8  2  0  0  0  0
  1 10  1  0  0  0  0
  1 26  1  0  0  0  0
  2 16  1  0  0  0  0
  3 13  1  0  0  0  0
  3 17  1  0  0  0  0
  4 20  1  0  0  0  0
  6 20  2  0  0  0  0
  9 20  1  0  0  0  0
 10 21  1  0  0  0  0
 10 23  1  0  0  0  0
 11 38  1  0  0  0  0
 12 13  1  0  0  0  0
 12 14  1  0  0  0  0
 12 15  1  6  0  0  0
 13  2  1  6  0  0  0
 14 16  1  0  0  0  0
 14  4  1  6  0  0  0
 15 17  1  0  0  0  0
 18  9  1  1  0  0  0
 18 19  1  0  0  0  0
 18 22  1  0  0  0  0
 19  5  1  6  0  0  0
 19 21  1  0  0  0  0
 22 25  1  0  0  0  0
 23 24  1  0  0  0  0
 24 27  1  0  0  0  0
 24 28  1  0  0  0  0
 25 29  2  0  0  0  0
 25 30  1  0  0  0  0
 26 31  2  0  0  0  0
 26 32  1  0  0  0  0
 29 33  1  0  0  0  0
 30 34  2  0  0  0  0
 31 36  1  0  0  0  0
 32 37  2  0  0  0  0
 33 35  2  0  0  0  0
 34 35  1  0  0  0  0
 36 38  2  0  0  0  0
 37 38  1  0  0  0  0
M  END
