1254
 OpenBabel10141417523D

 33 36  0  0  0  0  0  0  0  0999 V2000
   -5.6348    1.6735    0.2318 Cl  0  0  0  0  0  0  0  0  0  0  0  0
   -1.3157    4.3884    1.2317 S   0  0  0  0  0  0  0  0  0  0  0  0
   -5.8967   15.0684    3.8796 O   0  0  0  0  0  0  0  0  0  0  0  0
   -2.5548    1.6997    3.7173 O   0  0  0  0  0  0  0  0  0  0  0  0
   -4.4551   12.1416    5.7565 N   0  0  0  0  0  0  0  0  0  0  0  0
   -2.4761   10.5341    4.2470 N   0  0  0  0  0  0  0  0  0  0  0  0
   -0.5924   10.8766    2.7971 N   0  0  0  0  0  0  0  0  0  0  0  0
    0.0930    9.1203    1.3135 N   0  0  0  0  0  0  0  0  0  0  0  0
   -0.9222    7.0230    1.3390 N   0  0  0  0  0  0  0  0  0  0  0  0
   -1.7955    5.8971    3.2456 N   0  0  0  0  0  0  0  0  0  0  0  0
   -2.8875    1.7824    1.4257 N   0  0  0  0  0  0  0  0  0  0  0  0
   -3.0593   11.9161    6.2264 C   0  0  0  0  0  0  0  0  0  0  0  0
   -4.8161   10.9896    4.8966 C   0  0  0  0  0  0  0  0  0  0  0  0
   -2.0125   11.6348    5.1071 C   0  0  0  0  0  0  0  0  0  0  0  0
   -3.8445   10.7205    3.7227 C   0  0  0  0  0  0  0  0  0  0  0  0
   -4.5565   13.4497    5.0804 C   0  0  0  0  0  0  0  0  0  0  0  0
   -1.5666   10.0870    3.2724 C   0  0  0  0  0  0  0  0  0  0  0  0
   -5.9538   13.8131    4.5556 C   0  0  0  0  0  0  0  0  0  0  0  0
   -1.6965    8.7862    2.8258 C   0  0  0  0  0  0  0  0  0  0  0  0
   -0.8422    8.3229    1.8467 C   0  0  0  0  0  0  0  0  0  0  0  0
    0.1944   10.3623    1.8276 C   0  0  0  0  0  0  0  0  0  0  0  0
    1.2973   11.2223    1.2898 C   0  0  0  0  0  0  0  0  0  0  0  0
   -1.3403    5.9292    2.0106 C   0  0  0  0  0  0  0  0  0  0  0  0
   -2.0886    3.6903    2.5906 C   0  0  0  0  0  0  0  0  0  0  0  0
   -3.4339    0.4829    1.3377 C   0  0  0  0  0  0  0  0  0  0  0  0
   -2.2238    4.6353    3.5787 C   0  0  0  0  0  0  0  0  0  0  0  0
   -2.7029   -0.6397    1.7702 C   0  0  0  0  0  0  0  0  0  0  0  0
   -2.4883    2.3136    2.6410 C   0  0  0  0  0  0  0  0  0  0  0  0
   -4.7201    0.3163    0.7973 C   0  0  0  0  0  0  0  0  0  0  0  0
   -3.3263   -1.8967    1.7516 C   0  0  0  0  0  0  0  0  0  0  0  0
   -1.2725   -0.5563    2.2323 C   0  0  0  0  0  0  0  0  0  0  0  0
   -5.3160   -0.9436    0.7652 C   0  0  0  0  0  0  0  0  0  0  0  0
   -4.6230   -2.0473    1.2582 C   0  0  0  0  0  0  0  0  0  0  0  0
  1 29  1  0  0  0  0
  2 23  1  0  0  0  0
  2 24  1  0  0  0  0
  3 18  1  0  0  0  0
  4 28  2  0  0  0  0
  5 12  1  0  0  0  0
  5 13  1  0  0  0  0
  5 16  1  0  0  0  0
  6 14  1  0  0  0  0
  6 15  1  0  0  0  0
  6 17  1  0  0  0  0
  7 17  2  0  0  0  0
  7 21  1  0  0  0  0
  8 20  1  0  0  0  0
  8 21  2  0  0  0  0
  9 20  1  0  0  0  0
  9 23  1  0  0  0  0
 10 23  2  0  0  0  0
 10 26  1  0  0  0  0
 11 25  1  0  0  0  0
 11 28  1  0  0  0  0
 12 14  1  0  0  0  0
 13 15  1  0  0  0  0
 16 18  1  0  0  0  0
 17 19  1  0  0  0  0
 19 20  2  0  0  0  0
 21 22  1  0  0  0  0
 24 26  2  0  0  0  0
 24 28  1  0  0  0  0
 25 27  2  0  0  0  0
 25 29  1  0  0  0  0
 27 30  1  0  0  0  0
 27 31  1  0  0  0  0
 29 32  2  0  0  0  0
 30 33  2  0  0  0  0
 32 33  1  0  0  0  0
M  END
