694
 OpenBabel10141417523D

 38 42  0  0  1  0  0  0  0  0999 V2000
    0.4715   -1.6187   -1.9078 O   0  0  0  0  0  0  0  0  0  0  0  0
    2.2603   -0.1211   -2.4068 O   0  0  0  0  0  0  0  0  0  0  0  0
   -1.4713   -3.3584   -1.7166 O   0  0  0  0  0  0  0  0  0  0  0  0
    2.0035    1.2904   -5.1194 O   0  0  0  0  0  0  0  0  0  0  0  0
    3.2285   -0.9828    0.1381 O   0  0  0  0  0  0  0  0  0  0  0  0
    1.8636   -6.3142    0.0564 O   0  0  0  0  0  0  0  0  0  0  0  0
   -2.7150   -4.0161    1.5180 O   0  0  0  0  0  0  0  0  0  0  0  0
    5.5431   -1.6819   -0.5451 O   0  0  0  0  0  0  0  0  0  0  0  0
    4.4208   -6.8579   -0.0842 O   0  0  0  0  0  0  0  0  0  0  0  0
    8.0809   -2.2458   -0.9491 O   0  0  0  0  0  0  0  0  0  0  0  0
    0.1885   -0.5630   -6.0539 N   0  0  0  0  0  0  0  0  0  0  0  0
    0.6092   -1.5972   -0.4625 C   0  0  1  0  0  0  0  0  0  0  0  0
   -1.2729   -3.2781   -0.2981 C   0  0  2  0  0  0  0  0  0  0  0  0
   -0.7826   -1.8797    0.1087 C   0  0  0  0  0  0  0  0  0  0  0  0
   -0.2711   -4.3808    0.1073 C   0  0  0  0  0  0  0  0  0  0  0  0
    1.5894   -2.6631   -0.0204 C   0  0  0  0  0  0  0  0  0  0  0  0
    1.2007   -4.0111    0.0316 C   0  0  0  0  0  0  0  0  0  0  0  0
    1.6738   -1.3848   -2.6553 C   0  0  2  0  0  0  0  0  0  0  0  0
    1.3848   -1.5410   -4.1435 C   0  0  0  0  0  0  0  0  0  0  0  0
    0.4109   -0.4559   -4.5962 C   0  0  1  0  0  0  0  0  0  0  0  0
    0.9442    0.9420   -4.2155 C   0  0  1  0  0  0  0  0  0  0  0  0
    1.4266    0.9877   -2.7505 C   0  0  2  0  0  0  0  0  0  0  0  0
    2.9480   -2.3217    0.0540 C   0  0  0  0  0  0  0  0  0  0  0  0
   -2.6327   -3.5276    0.3879 C   0  0  0  0  0  0  0  0  0  0  0  0
    2.2110   -4.9912    0.0363 C   0  0  0  0  0  0  0  0  0  0  0  0
    3.9428   -3.2971   -0.0782 C   0  0  0  0  0  0  0  0  0  0  0  0
    3.5758   -4.6407   -0.0778 C   0  0  0  0  0  0  0  0  0  0  0  0
    2.2417    2.2405   -2.4480 C   0  0  0  0  0  0  0  0  0  0  0  0
   -3.8785   -3.0785   -0.3363 C   0  0  0  0  0  0  0  0  0  0  0  0
    5.3310   -2.8800   -0.3941 C   0  0  0  0  0  0  0  0  0  0  0  0
    4.6358   -5.6692   -0.2324 C   0  0  0  0  0  0  0  0  0  0  0  0
    6.3812   -3.9044   -0.6236 C   0  0  0  0  0  0  0  0  0  0  0  0
    6.0128   -5.2495   -0.5734 C   0  0  0  0  0  0  0  0  0  0  0  0
    7.7212   -3.5679   -0.9181 C   0  0  0  0  0  0  0  0  0  0  0  0
    6.9509   -6.2556   -0.8508 C   0  0  0  0  0  0  0  0  0  0  0  0
    8.6399   -4.5867   -1.2151 C   0  0  0  0  0  0  0  0  0  0  0  0
    8.2570   -5.9239   -1.1834 C   0  0  0  0  0  0  0  0  0  0  0  0
    9.4419   -1.9469   -0.6504 C   0  0  0  0  0  0  0  0  0  0  0  0
  2 18  1  0  0  0  0
  2 22  1  0  0  0  0
  5 23  1  0  0  0  0
  6 25  1  0  0  0  0
  7 24  2  0  0  0  0
  8 30  2  0  0  0  0
  9 31  2  0  0  0  0
 10 34  1  0  0  0  0
 10 38  1  0  0  0  0
 12 14  1  0  0  0  0
 12 16  1  0  0  0  0
 12  1  1  6  0  0  0
 13 14  1  0  0  0  0
 13 15  1  0  0  0  0
 13 24  1  1  0  0  0
 13  3  1  0  0  0  0
 15 17  1  0  0  0  0
 16 17  2  0  0  0  0
 16 23  1  0  0  0  0
 17 25  1  0  0  0  0
 18  1  1  1  0  0  0
 18 19  1  0  0  0  0
 19 20  1  0  0  0  0
 20 21  1  0  0  0  0
 20 11  1  6  0  0  0
 21 22  1  0  0  0  0
 21  4  1  6  0  0  0
 22 28  1  6  0  0  0
 23 26  2  0  0  0  0
 24 29  1  0  0  0  0
 25 27  2  0  0  0  0
 26 27  1  0  0  0  0
 26 30  1  0  0  0  0
 27 31  1  0  0  0  0
 30 32  1  0  0  0  0
 31 33  1  0  0  0  0
 32 33  2  0  0  0  0
 32 34  1  0  0  0  0
 33 35  1  0  0  0  0
 34 36  2  0  0  0  0
 35 37  2  0  0  0  0
 36 37  1  0  0  0  0
M  END
