4840
 OpenBabel10141417523D

 13 14  0  0  0  0  0  0  0  0999 V2000
   -2.3827    0.5399   -0.6497 N   0  0  0  0  0  0  0  0  0  0  0  0
   -3.4219    2.1091   -1.9517 N   0  0  0  0  0  0  0  0  0  0  0  0
   -4.7472    0.8638   -0.6342 N   0  0  0  0  0  0  0  0  0  0  0  0
   -1.1522   -1.5471   -0.2421 C   0  0  0  0  0  0  0  0  0  0  0  0
   -2.3904   -0.7204    0.1005 C   0  0  0  0  0  0  0  0  0  0  0  0
   -1.2267    1.4049   -0.3346 C   0  0  0  0  0  0  0  0  0  0  0  0
    0.1112   -0.7537   -0.0540 C   0  0  0  0  0  0  0  0  0  0  0  0
    0.0707    0.6486   -0.1245 C   0  0  0  0  0  0  0  0  0  0  0  0
    1.3353   -1.4103    0.1328 C   0  0  0  0  0  0  0  0  0  0  0  0
    1.2640    1.3728    0.0315 C   0  0  0  0  0  0  0  0  0  0  0  0
   -3.5537    1.1372   -1.0253 C   0  0  0  0  0  0  0  0  0  0  0  0
    2.5125   -0.6780    0.2789 C   0  0  0  0  0  0  0  0  0  0  0  0
    2.4769    0.7129    0.2316 C   0  0  0  0  0  0  0  0  0  0  0  0
  1  5  1  0  0  0  0
  1  6  1  0  0  0  0
  1 11  1  0  0  0  0
  2 11  1  0  0  0  0
  3 11  2  0  0  0  0
  4  5  1  0  0  0  0
  4  7  1  0  0  0  0
  6  8  1  0  0  0  0
  7  8  1  0  0  0  0
  7  9  2  0  0  0  0
  8 10  2  0  0  0  0
  9 12  1  0  0  0  0
 10 13  1  0  0  0  0
 12 13  2  0  0  0  0
M  END
