1245
 OpenBabel10141417483D

 18 17  0  0  0  0  0  0  0  0999 V2000
    3.1363   -5.3537    2.4890 N   0  3  0  0  0  0  0  0  0  0  0  0
    7.2977   -9.4063   -4.4073 N   0  3  0  0  0  0  0  0  0  0  0  0
    2.5384   -4.1784    1.6789 C   0  0  0  0  0  0  0  0  0  0  0  0
    6.4192   -8.2629   -3.8621 C   0  0  0  0  0  0  0  0  0  0  0  0
    1.7792   -4.5017    0.3894 C   0  0  0  0  0  0  0  0  0  0  0  0
    5.0455   -8.7367   -3.3723 C   0  0  0  0  0  0  0  0  0  0  0  0
    0.4509   -5.2582    0.5114 C   0  0  0  0  0  0  0  0  0  0  0  0
    4.2059   -7.5785   -2.8331 C   0  0  0  0  0  0  0  0  0  0  0  0
   -0.0993   -5.9088   -0.7717 C   0  0  0  0  0  0  0  0  0  0  0  0
    2.7983   -8.0425   -2.4130 C   0  0  0  0  0  0  0  0  0  0  0  0
    0.6431   -7.1643   -1.2800 C   0  0  0  0  0  0  0  0  0  0  0  0
    2.0331   -6.8690   -1.8290 C   0  0  0  0  0  0  0  0  0  0  0  0
    3.9278   -4.7241    3.6506 C   0  0  0  0  0  0  0  0  0  0  0  0
    4.0928   -6.2223    1.6909 C   0  0  0  0  0  0  0  0  0  0  0  0
    2.0695   -6.2576    3.1146 C   0  0  0  0  0  0  0  0  0  0  0  0
    7.5831  -10.4605   -3.3436 C   0  0  0  0  0  0  0  0  0  0  0  0
    6.6621  -10.0726   -5.6262 C   0  0  0  0  0  0  0  0  0  0  0  0
    8.6396   -8.8074   -4.8528 C   0  0  0  0  0  0  0  0  0  0  0  0
  1  3  1  0  0  0  0
  1 13  1  0  0  0  0
  1 14  1  0  0  0  0
  1 15  1  0  0  0  0
  2  4  1  0  0  0  0
  2 16  1  0  0  0  0
  2 17  1  0  0  0  0
  2 18  1  0  0  0  0
  3  5  1  0  0  0  0
  4  6  1  0  0  0  0
  5  7  1  0  0  0  0
  6  8  1  0  0  0  0
  7  9  1  0  0  0  0
  8 10  1  0  0  0  0
  9 11  1  0  0  0  0
 10 12  1  0  0  0  0
 11 12  1  0  0  0  0
M  CHG  2   1   1   2   1
M  END
