1262
 OpenBabel10141417483D

 16 17  0  0  1  0  0  0  0  0999 V2000
    0.3762   -1.0531    0.7057 O   0  0  0  0  0  0  0  0  0  0  0  0
    1.3347    0.0782   -2.5457 O   0  0  0  0  0  0  0  0  0  0  0  0
    3.0943   -1.9856    0.3297 O   0  0  0  0  0  0  0  0  0  0  0  0
    1.0875    2.8653    1.8207 O   0  0  0  0  0  0  0  0  0  0  0  0
    1.5214    0.6379    1.9189 N   0  0  0  0  0  0  0  0  0  0  0  0
    2.7275    2.1904    3.2075 N   0  0  0  0  0  0  0  0  0  0  0  0
    2.6715   -0.0452    3.8326 N   0  0  0  0  0  0  0  0  0  0  0  0
    4.0889    1.4392    4.8814 N   0  0  0  0  0  0  0  0  0  0  0  0
    1.4895   -0.0133   -1.1365 C   0  0  1  0  0  0  0  0  0  0  0  0
    0.6384    1.0012   -0.4148 C   0  0  0  0  0  0  0  0  0  0  0  0
    0.9394   -1.3285   -0.5964 C   0  0  1  0  0  0  0  0  0  0  0  0
    0.4603    0.3631    0.9594 C   0  0  1  0  0  0  0  0  0  0  0  0
    2.0059   -2.4200   -0.4864 C   0  0  0  0  0  0  0  0  0  0  0  0
    1.7558    1.9434    2.2822 C   0  0  0  0  0  0  0  0  0  0  0  0
    1.9037   -0.2912    2.8306 C   0  0  0  0  0  0  0  0  0  0  0  0
    3.1478    1.2163    3.9338 C   0  0  0  0  0  0  0  0  0  0  0  0
  1 11  1  0  0  0  0
  1 12  1  0  0  0  0
  3 13  1  0  0  0  0
  4 14  2  0  0  0  0
  5 14  1  0  0  0  0
  5 15  1  0  0  0  0
  6 14  1  0  0  0  0
  6 16  2  0  0  0  0
  7 15  2  0  0  0  0
  7 16  1  0  0  0  0
  8 16  1  0  0  0  0
  9  2  1  6  0  0  0
  9 10  1  0  0  0  0
  9 11  1  0  0  0  0
 10 12  1  0  0  0  0
 11 13  1  1  0  0  0
 12  5  1  1  0  0  0
M  END
