
 OpenBabel10141417513D

 10 10  0  0  0  0  0  0  0  0999 V2000
    0.0018   -1.3659    0.0938 N   0  0  0  0  0  0  0  0  0  0  0  0
   -1.1853   -0.6462    0.0401 C   0  0  0  0  0  0  0  0  0  0  0  0
   -1.2758    0.6829   -0.0290 C   0  0  0  0  0  0  0  0  0  0  0  0
    1.2268   -0.6554    0.0923 C   0  0  0  0  0  0  0  0  0  0  0  0
    1.2712    0.6987   -0.0055 C   0  0  0  0  0  0  0  0  0  0  0  0
   -0.0232    1.4628   -0.0627 C   0  0  0  0  0  0  0  0  0  0  0  0
   -0.0705    2.6858   -0.1337 O   0  0  0  0  0  0  0  0  0  0  0  0
    2.4367    1.4445   -0.0502 O   0  0  0  0  0  0  0  0  0  0  0  0
    2.5238   -1.4227    0.2426 C   0  0  0  0  0  0  0  0  0  0  0  0
   -0.0598   -2.8317    0.1851 C   0  0  0  0  0  0  0  0  0  0  0  0
  1  2  1  0  0  0  0
  1  4  1  0  0  0  0
  1 10  1  0  0  0  0
  2  3  2  0  0  0  0
  4  5  2  0  0  0  0
  4  9  1  0  0  0  0
  5  6  1  0  0  0  0
  5  8  1  0  0  0  0
  6  3  1  0  0  0  0
  6  7  2  0  0  0  0
M  END
