746
 OpenBabel10141417483D

 39 38  0  0  0  0  0  0  0  0999 V2000
    6.4780   -0.2016    4.6871 O   0  0  0  0  0  0  0  0  0  0  0  0
    6.9553   -5.4656    1.4023 O   0  0  0  0  0  0  0  0  0  0  0  0
    4.1782    1.9836    3.1301 O   0  0  0  0  0  0  0  0  0  0  0  0
    7.6002   -0.9410   -1.6825 O   0  0  0  0  0  0  0  0  0  0  0  0
    1.2955   -0.2982    6.4965 O   0  0  0  0  0  0  0  0  0  0  0  0
   -3.0127   -7.8798    6.7297 O   0  0  0  0  0  0  0  0  0  0  0  0
    8.0802   -2.4353    2.7074 O   0  0  0  0  0  0  0  0  0  0  0  0
   -2.1858   -4.4450    6.9621 O   0  0  0  0  0  0  0  0  0  0  0  0
    6.0320    0.8977    3.9182 N   0  0  0  0  0  0  0  0  0  0  0  0
    8.1558   -0.7733    0.5487 N   0  0  0  0  0  0  0  0  0  0  0  0
    1.0954   -1.5705    4.6087 N   0  0  0  0  0  0  0  0  0  0  0  0
    7.5760   -4.6933    2.4367 N   0  0  0  0  0  0  0  0  0  0  0  0
   -2.3960   -6.6575    6.3775 N   0  0  0  0  0  0  0  0  0  0  0  0
   11.4133   -3.5920    5.0355 N   0  0  0  0  0  0  0  0  0  0  0  0
    8.9615    1.0849    3.0124 C   0  0  0  0  0  0  0  0  0  0  0  0
    7.9178    2.2118    2.9921 C   0  0  0  0  0  0  0  0  0  0  0  0
    9.7682    0.7635    1.7393 C   0  0  0  0  0  0  0  0  0  0  0  0
    0.4987   -5.0531    6.1433 C   0  0  0  0  0  0  0  0  0  0  0  0
    6.8782    2.0750    4.1154 C   0  0  0  0  0  0  0  0  0  0  0  0
    1.2325   -3.7927    5.6600 C   0  0  0  0  0  0  0  0  0  0  0  0
    9.0844    0.3384    0.4246 C   0  0  0  0  0  0  0  0  0  0  0  0
   -0.4098   -5.6896    5.0730 C   0  0  0  0  0  0  0  0  0  0  0  0
    7.8746   -5.0237    4.9753 C   0  0  0  0  0  0  0  0  0  0  0  0
    8.3746   -3.6091    5.2703 C   0  0  0  0  0  0  0  0  0  0  0  0
    0.3194   -2.6596    5.1761 C   0  0  0  0  0  0  0  0  0  0  0  0
    6.9855   -5.1459    3.7121 C   0  0  0  0  0  0  0  0  0  0  0  0
    9.3298   -3.4011    6.4504 C   0  0  0  0  0  0  0  0  0  0  0  0
   -1.2177   -6.9061    5.5408 C   0  0  0  0  0  0  0  0  0  0  0  0
    3.8232    0.1188    4.6119 C   0  0  0  0  0  0  0  0  0  0  0  0
    2.3528    0.4829    4.4874 C   0  0  0  0  0  0  0  0  0  0  0  0
    6.5914   -2.5487   -0.1834 C   0  0  0  0  0  0  0  0  0  0  0  0
    6.2908   -2.8848    1.2651 C   0  0  0  0  0  0  0  0  0  0  0  0
    4.6736    1.0704    3.8180 C   0  0  0  0  0  0  0  0  0  0  0  0
    7.5092   -1.3290   -0.5173 C   0  0  0  0  0  0  0  0  0  0  0  0
    1.5076   -0.4712    5.3268 C   0  0  0  0  0  0  0  0  0  0  0  0
   10.7138   -4.0317    6.2424 C   0  0  0  0  0  0  0  0  0  0  0  0
    7.4262   -3.3267    2.1605 C   0  0  0  0  0  0  0  0  0  0  0  0
   -2.5708   -5.5904    7.2246 C   0  0  0  0  0  0  0  0  0  0  0  0
   -3.3252   -5.8141    8.5059 C   0  0  0  0  0  0  0  0  0  0  0  0
  1  9  1  0  0  0  0
  2 12  1  0  0  0  0
  3 33  2  0  0  0  0
  4 34  2  0  0  0  0
  5 35  2  0  0  0  0
  6 13  1  0  0  0  0
  7 37  2  0  0  0  0
  8 38  2  0  0  0  0
  9 19  1  0  0  0  0
  9 33  1  0  0  0  0
 10 21  1  0  0  0  0
 10 34  1  0  0  0  0
 11 25  1  0  0  0  0
 11 35  1  0  0  0  0
 12 26  1  0  0  0  0
 12 37  1  0  0  0  0
 13 28  1  0  0  0  0
 13 38  1  0  0  0  0
 14 36  1  0  0  0  0
 15 16  1  0  0  0  0
 15 17  1  0  0  0  0
 16 19  1  0  0  0  0
 17 21  1  0  0  0  0
 18 20  1  0  0  0  0
 18 22  1  0  0  0  0
 20 25  1  0  0  0  0
 22 28  1  0  0  0  0
 23 24  1  0  0  0  0
 23 26  1  0  0  0  0
 24 27  1  0  0  0  0
 27 36  1  0  0  0  0
 29 30  1  0  0  0  0
 29 33  1  0  0  0  0
 30 35  1  0  0  0  0
 31 32  1  0  0  0  0
 31 34  1  0  0  0  0
 32 37  1  0  0  0  0
 38 39  1  0  0  0  0
M  END
