705
 OpenBabel10141417503D

 32 35  0  0  0  0  0  0  0  0999 V2000
   -5.5659   -5.3917    4.0230 S   0  0  0  0  0  0  0  0  0  0  0  0
   -6.2782    1.3793   -2.1223 O   0  0  0  0  0  0  0  0  0  0  0  0
   -6.2426   -6.6245    3.6373 O   0  0  0  0  0  0  0  0  0  0  0  0
   -6.2889   -4.2334    4.4572 O   0  0  0  0  0  0  0  0  0  0  0  0
  -10.0570    2.3696   -0.8320 N   0  0  0  0  0  0  0  0  0  0  0  0
   -8.3146    0.3230   -1.9373 N   0  0  0  0  0  0  0  0  0  0  0  0
   -5.2909   -0.2312    0.0395 N   0  0  0  0  0  0  0  0  0  0  0  0
  -10.5161    5.1373   -1.8906 N   0  0  0  0  0  0  0  0  0  0  0  0
  -10.3291    3.2913    1.3418 N   0  0  0  0  0  0  0  0  0  0  0  0
   -4.5383   -5.0163    2.7280 N   0  0  0  0  0  0  0  0  0  0  0  0
   -9.2613    2.6130   -2.0661 C   0  0  0  0  0  0  0  0  0  0  0  0
   -9.5886    1.2046   -0.0132 C   0  0  0  0  0  0  0  0  0  0  0  0
   -8.8915    1.3204   -2.8215 C   0  0  0  0  0  0  0  0  0  0  0  0
   -9.2647   -0.0328   -0.8783 C   0  0  0  0  0  0  0  0  0  0  0  0
  -10.2647    3.5184   -0.0020 C   0  0  0  0  0  0  0  0  0  0  0  0
   -6.9462    0.4539   -1.6639 C   0  0  0  0  0  0  0  0  0  0  0  0
   -6.3404   -0.5337   -0.7996 C   0  0  0  0  0  0  0  0  0  0  0  0
  -10.4411    4.8500   -0.5062 C   0  0  0  0  0  0  0  0  0  0  0  0
   -6.5764   -1.8895   -0.6558 C   0  0  0  0  0  0  0  0  0  0  0  0
   -5.7624   -2.3744    0.4028 C   0  0  0  0  0  0  0  0  0  0  0  0
   -5.0102   -1.2957    0.8646 C   0  0  0  0  0  0  0  0  0  0  0  0
  -10.6315    6.5135   -2.3777 C   0  0  0  0  0  0  0  0  0  0  0  0
  -10.5564    5.8898    0.4378 C   0  0  0  0  0  0  0  0  0  0  0  0
   -5.6107   -3.6282    1.0253 C   0  0  0  0  0  0  0  0  0  0  0  0
   -4.1563   -1.3878    1.9696 C   0  0  0  0  0  0  0  0  0  0  0  0
  -10.4912    4.3266    2.1943 C   0  0  0  0  0  0  0  0  0  0  0  0
   -4.7239   -3.7456    2.1025 C   0  0  0  0  0  0  0  0  0  0  0  0
  -10.5869    5.6357    1.7967 C   0  0  0  0  0  0  0  0  0  0  0  0
   -4.0454   -2.6340    2.5971 C   0  0  0  0  0  0  0  0  0  0  0  0
  -10.0249    6.6198   -3.7760 C   0  0  0  0  0  0  0  0  0  0  0  0
  -12.0986    6.9392   -2.3857 C   0  0  0  0  0  0  0  0  0  0  0  0
   -4.3657   -5.8034    5.2641 C   0  0  0  0  0  0  0  0  0  0  0  0
  1  3  2  0  0  0  0
  1  4  2  0  0  0  0
  1 10  1  0  0  0  0
  1 32  1  0  0  0  0
  2 16  2  0  0  0  0
  5 11  1  0  0  0  0
  5 12  1  0  0  0  0
  5 15  1  0  0  0  0
  6 13  1  0  0  0  0
  6 14  1  0  0  0  0
  6 16  1  0  0  0  0
  7 17  1  0  0  0  0
  7 21  1  0  0  0  0
  8 18  1  0  0  0  0
  8 22  1  0  0  0  0
  9 15  1  0  0  0  0
  9 26  2  0  0  0  0
 10 27  1  0  0  0  0
 11 13  1  0  0  0  0
 12 14  1  0  0  0  0
 15 18  2  0  0  0  0
 16 17  1  0  0  0  0
 17 19  2  0  0  0  0
 18 23  1  0  0  0  0
 19 20  1  0  0  0  0
 20 21  2  0  0  0  0
 20 24  1  0  0  0  0
 21 25  1  0  0  0  0
 22 30  1  0  0  0  0
 22 31  1  0  0  0  0
 23 28  2  0  0  0  0
 24 27  2  0  0  0  0
 25 29  2  0  0  0  0
 26 28  1  0  0  0  0
 27 29  1  0  0  0  0
M  END
