944
 OpenBabel10141417523D

 40 41  0  0  0  0  0  0  0  0999 V2000
    1.9164    6.3852   -0.3798 O   0  0  0  0  0  0  0  0  0  0  0  0
   -8.9219   -1.6985   -5.9730 O   0  0  0  0  0  0  0  0  0  0  0  0
    0.0348    7.5753   -1.0712 O   0  0  0  0  0  0  0  0  0  0  0  0
   -8.4294   -3.5154   -7.3515 O   0  0  0  0  0  0  0  0  0  0  0  0
    3.0966   11.2200   -0.0282 N   0  3  0  0  0  0  0  0  0  0  0  0
  -13.0388   -4.3449   -6.3231 N   0  3  0  0  0  0  0  0  0  0  0  0
    0.7336    5.6826   -2.2278 N   0  0  0  0  0  0  0  0  0  0  0  0
   -7.0014   -1.6749   -7.1815 N   0  0  0  0  0  0  0  0  0  0  0  0
   -3.6376    2.9484   -4.4010 C   0  0  0  0  0  0  0  0  0  0  0  0
   -4.9744    2.1663   -4.3089 C   0  0  0  0  0  0  0  0  0  0  0  0
   -2.6411    2.6993   -3.2645 C   0  0  0  0  0  0  0  0  0  0  0  0
   -5.8515    2.5422   -5.5202 C   0  0  0  0  0  0  0  0  0  0  0  0
   -1.3288    3.5104   -3.3751 C   0  0  0  0  0  0  0  0  0  0  0  0
   -7.2573    1.9627   -5.6353 C   0  0  0  0  0  0  0  0  0  0  0  0
   -1.4903    5.0381   -3.3174 C   0  0  0  0  0  0  0  0  0  0  0  0
   -7.4262    0.4570   -5.7888 C   0  0  0  0  0  0  0  0  0  0  0  0
   -0.1878    5.8583   -3.3526 C   0  0  0  0  0  0  0  0  0  0  0  0
   -6.8370   -0.1834   -7.0533 C   0  0  0  0  0  0  0  0  0  0  0  0
    3.3728    9.7555    0.2908 C   0  0  0  0  0  0  0  0  0  0  0  0
  -12.1289   -3.4425   -5.5167 C   0  0  0  0  0  0  0  0  0  0  0  0
    3.6443   12.1190    1.0750 C   0  0  0  0  0  0  0  0  0  0  0  0
    1.5878   11.4938   -0.0915 C   0  0  0  0  0  0  0  0  0  0  0  0
    3.7146   11.5650   -1.3748 C   0  0  0  0  0  0  0  0  0  0  0  0
  -13.7270   -5.3620   -5.4268 C   0  0  0  0  0  0  0  0  0  0  0  0
  -14.0671   -3.4808   -7.0284 C   0  0  0  0  0  0  0  0  0  0  0  0
  -12.2155   -5.1439   -7.3510 C   0  0  0  0  0  0  0  0  0  0  0  0
    2.5286    8.7612   -0.2079 C   0  0  0  0  0  0  0  0  0  0  0  0
  -11.0048   -2.9061   -6.1283 C   0  0  0  0  0  0  0  0  0  0  0  0
    4.4742    9.3566    1.0674 C   0  0  0  0  0  0  0  0  0  0  0  0
  -12.3840   -3.1110   -4.1732 C   0  0  0  0  0  0  0  0  0  0  0  0
    2.7180    7.4178    0.1393 C   0  0  0  0  0  0  0  0  0  0  0  0
  -10.0916   -2.1729   -5.3770 C   0  0  0  0  0  0  0  0  0  0  0  0
    0.8027    6.6006   -1.2026 C   0  0  0  0  0  0  0  0  0  0  0  0
   -8.1389   -2.3950   -6.8897 C   0  0  0  0  0  0  0  0  0  0  0  0
    1.5075    4.4415   -2.1553 C   0  0  0  0  0  0  0  0  0  0  0  0
   -5.8837   -2.3789   -7.7797 C   0  0  0  0  0  0  0  0  0  0  0  0
    4.6805    8.0071    1.3902 C   0  0  0  0  0  0  0  0  0  0  0  0
  -11.4912   -2.3085   -3.4468 C   0  0  0  0  0  0  0  0  0  0  0  0
    3.7939    7.0367    0.9325 C   0  0  0  0  0  0  0  0  0  0  0  0
  -10.3328   -1.8488   -4.0523 C   0  0  0  0  0  0  0  0  0  0  0  0
  1 31  1  0  0  0  0
  1 33  1  0  0  0  0
  2 32  1  0  0  0  0
  2 34  1  0  0  0  0
  3 33  2  0  0  0  0
  4 34  2  0  0  0  0
  5 19  1  0  0  0  0
  5 21  1  0  0  0  0
  5 22  1  0  0  0  0
  5 23  1  0  0  0  0
  6 20  1  0  0  0  0
  6 24  1  0  0  0  0
  6 25  1  0  0  0  0
  6 26  1  0  0  0  0
  7 17  1  0  0  0  0
  7 33  1  0  0  0  0
  7 35  1  0  0  0  0
  8 18  1  0  0  0  0
  8 34  1  0  0  0  0
  8 36  1  0  0  0  0
  9 10  1  0  0  0  0
  9 11  1  0  0  0  0
 10 12  1  0  0  0  0
 11 13  1  0  0  0  0
 12 14  1  0  0  0  0
 13 15  1  0  0  0  0
 14 16  1  0  0  0  0
 15 17  1  0  0  0  0
 16 18  1  0  0  0  0
 19 27  2  0  0  0  0
 19 29  1  0  0  0  0
 20 28  2  0  0  0  0
 20 30  1  0  0  0  0
 27 31  1  0  0  0  0
 28 32  1  0  0  0  0
 29 37  2  0  0  0  0
 30 38  2  0  0  0  0
 31 39  2  0  0  0  0
 32 40  2  0  0  0  0
 37 39  1  0  0  0  0
 38 40  1  0  0  0  0
M  CHG  2   5   1   6   1
M  END
