
 OpenBabel10141417513D

 21 23  0  0  0  0  0  0  0  0999 V2000
    2.3136   -2.5594   -2.4388 C   0  0  0  0  0  0  0  0  0  0  0  0
    9.9105   -4.5048   -5.2141 C   0  0  0  0  0  0  0  0  0  0  0  0
   11.1743    3.0345   -4.6955 C   0  0  0  0  0  0  0  0  0  0  0  0
    9.3827   -4.2975   -3.9441 C   0  0  0  0  0  0  0  0  0  0  0  0
   10.8791    2.7002   -3.3706 C   0  0  0  0  0  0  0  0  0  0  0  0
   10.1778   -3.4150   -6.0415 C   0  0  0  0  0  0  0  0  0  0  0  0
   10.7685    2.2022   -5.7409 C   0  0  0  0  0  0  0  0  0  0  0  0
    9.0923   -3.0019   -3.5102 C   0  0  0  0  0  0  0  0  0  0  0  0
   10.1750    1.5291   -3.0789 C   0  0  0  0  0  0  0  0  0  0  0  0
   10.3777   -1.0093   -6.4759 C   0  0  0  0  0  0  0  0  0  0  0  0
    9.6285    0.1079   -6.5147 C   0  0  0  0  0  0  0  0  0  0  0  0
    4.6298   -1.9307   -2.7052 C   0  0  0  0  0  0  0  0  0  0  0  0
    5.6364   -0.7792   -2.8183 C   0  0  0  0  0  0  0  0  0  0  0  0
    9.8891   -2.1077   -5.6171 C   0  0  0  0  0  0  0  0  0  0  0  0
   10.0655    1.0304   -5.4544 C   0  0  0  0  0  0  0  0  0  0  0  0
    9.3037   -1.8903   -4.3436 C   0  0  0  0  0  0  0  0  0  0  0  0
    9.7806    0.6806   -4.1174 C   0  0  0  0  0  0  0  0  0  0  0  0
    8.9251   -0.5191   -3.8061 C   0  0  0  0  0  0  0  0  0  0  0  0
    3.2504   -1.4478   -2.5457 N   0  0  0  0  0  0  0  0  0  0  0  0
    7.8496   -0.2464   -3.1140 N   0  0  0  0  0  0  0  0  0  0  0  0
    6.9501   -1.3165   -3.0062 O   0  0  0  0  0  0  0  0  0  0  0  0
  4  2  2  0  0  0  0
  5  3  2  0  0  0  0
  6  2  1  0  0  0  0
  7  3  1  0  0  0  0
  8  4  1  0  0  0  0
  9  5  1  0  0  0  0
 11 10  2  0  0  0  0
 13 12  1  0  0  0  0
 14  6  2  0  0  0  0
 14 10  1  0  0  0  0
 15  7  2  0  0  0  0
 15 11  1  0  0  0  0
 16  8  2  0  0  0  0
 16 14  1  0  0  0  0
 17  9  2  0  0  0  0
 17 15  1  0  0  0  0
 18 16  1  0  0  0  0
 18 17  1  0  0  0  0
 19  1  1  0  0  0  0
 19 12  1  0  0  0  0
 20 18  2  0  0  0  0
 21 13  1  0  0  0  0
 21 20  1  0  0  0  0
M  END
