
 OpenBabel10141417483D

 32 35  0  0  1  0  0  0  0  0999 V2000
   -0.5356    0.4018    0.5522 C   0  0  0  0  0  0  0  0  0  0  0  0
    3.2517   -0.2204    3.2113 N   0  0  0  0  0  0  0  0  0  0  0  0
    3.4879   -0.9052    0.6789 C   0  0  2  0  0  0  0  0  0  0  0  0
    2.5292   -2.0985    0.7590 C   0  0  2  0  0  0  0  0  0  0  0  0
    3.1996    0.1457    1.7805 C   0  0  1  0  0  0  0  0  0  0  0  0
    4.9272   -1.3874    0.4956 C   0  0  0  0  0  0  0  0  0  0  0  0
    2.7494   -3.0391   -0.4282 C   0  0  0  0  0  0  0  0  0  0  0  0
    1.0705   -1.5929    0.8249 C   0  0  0  0  0  0  0  0  0  0  0  0
    2.7816   -2.9035    1.9118 O   0  0  0  0  0  0  0  0  0  0  0  0
    1.7978    0.6721    1.4233 C   0  0  0  0  0  0  0  0  0  0  0  0
    5.0434   -2.0980   -0.8802 C   0  0  1  0  0  0  0  0  0  0  0  0
    3.8778   -3.0092   -1.1724 C   0  0  0  0  0  0  0  0  0  0  0  0
    1.7615   -3.9862   -0.6633 O   0  0  0  0  0  0  0  0  0  0  0  0
    0.8014   -0.1217    0.9625 C   0  0  0  0  0  0  0  0  0  0  0  0
    0.1530   -2.4224    0.8131 O   0  0  0  0  0  0  0  0  0  0  0  0
    1.6379    2.0531    1.5314 O   0  0  0  0  0  0  0  0  0  0  0  0
    6.4004   -2.8213   -0.9938 C   0  0  1  0  0  0  0  0  0  0  0  0
    4.0166   -3.8327   -2.4086 C   0  0  0  0  0  0  0  0  0  0  0  0
    6.5416   -3.6152   -2.2787 C   0  0  0  0  0  0  0  0  0  0  0  0
    7.3786   -1.7823   -0.8939 O   0  0  0  0  0  0  0  0  0  0  0  0
    5.3843   -4.0755   -2.9492 C   0  0  0  0  0  0  0  0  0  0  0  0
    3.0515   -4.2545   -3.0399 O   0  0  0  0  0  0  0  0  0  0  0  0
    7.7953   -3.9849   -2.8159 C   0  0  0  0  0  0  0  0  0  0  0  0
    5.5065   -4.8045   -4.1507 C   0  0  0  0  0  0  0  0  0  0  0  0
    7.8969   -4.6928   -4.0189 C   0  0  0  0  0  0  0  0  0  0  0  0
    9.2934   -3.6433   -2.0153 Cl  0  0  0  0  0  0  0  0  0  0  0  0
    6.7517   -5.0930   -4.6924 C   0  0  0  0  0  0  0  0  0  0  0  0
    4.4374   -5.2839   -4.8615 O   0  0  0  0  0  0  0  0  0  0  0  0
    2.9511    0.8980    4.1145 C   0  0  0  0  0  0  0  0  0  0  0  0
    4.5255   -0.8123    3.6237 C   0  0  0  0  0  0  0  0  0  0  0  0
   -1.2600   -0.1852   -0.2486 O   0  0  0  0  0  0  0  0  0  0  0  0
   -0.9359    1.5833    1.0930 N   0  0  0  0  0  0  0  0  0  0  0  0
  1 31  2  0  0  0  0
  1 32  1  0  0  0  0
  2 29  1  0  0  0  0
  2 30  1  0  0  0  0
  3  4  1  0  0  0  0
  3  5  1  0  0  0  0
  3  6  1  6  0  0  0
  4  7  1  0  0  0  0
  4  8  1  0  0  0  0
  4  9  1  1  0  0  0
  5 10  1  0  0  0  0
  5  2  1  1  0  0  0
  6 11  1  0  0  0  0
  7 12  2  0  0  0  0
  7 13  1  0  0  0  0
  8 14  1  0  0  0  0
  8 15  2  0  0  0  0
 10 14  2  0  0  0  0
 10 16  1  0  0  0  0
 11 12  1  6  0  0  0
 11 17  1  0  0  0  0
 12 18  1  0  0  0  0
 14  1  1  0  0  0  0
 17 19  1  0  0  0  0
 17 20  1  6  0  0  0
 18 21  1  0  0  0  0
 18 22  2  0  0  0  0
 19 23  1  0  0  0  0
 19 21  2  0  0  0  0
 21 24  1  0  0  0  0
 23 25  2  0  0  0  0
 23 26  1  0  0  0  0
 24 27  2  0  0  0  0
 24 28  1  0  0  0  0
 25 27  1  0  0  0  0
M  END
