1089
 OpenBabel10141417523D

 42 47  0  0  1  0  0  0  0  0999 V2000
   -0.8905   -1.7448   -2.0641 O   0  0  0  0  0  0  0  0  0  0  0  0
    2.7194   -1.8095   -1.6264 O   0  0  0  0  0  0  0  0  0  0  0  0
   -0.4566    2.3098   -2.5389 O   0  0  0  0  0  0  0  0  0  0  0  0
    0.9208    1.5158   -0.8894 O   0  0  0  0  0  0  0  0  0  0  0  0
    3.5599   -3.9763   -1.5611 O   0  0  0  0  0  0  0  0  0  0  0  0
    6.1337    0.9452    0.4179 O   0  0  0  0  0  0  0  0  0  0  0  0
    8.5191   -2.7429   -1.6994 O   0  0  0  0  0  0  0  0  0  0  0  0
    8.5843   -0.2606   -0.3770 O   0  0  0  0  0  0  0  0  0  0  0  0
    2.2722    0.0473   -6.6703 N   0  0  3  0  0  0  0  0  0  0  0  0
    3.3313    3.5997   -6.2390 N   0  0  0  0  0  0  0  0  0  0  0  0
    1.7099    0.2573   -3.7445 C   0  0  2  0  0  0  0  0  0  0  0  0
    2.1595   -1.0720   -4.4163 C   0  0  1  0  0  0  0  0  0  0  0  0
    1.6583    1.4234   -4.7708 C   0  0  0  0  0  0  0  0  0  0  0  0
    0.4613    0.1434   -2.8624 C   0  0  1  0  0  0  0  0  0  0  0  0
    2.7403    1.1581   -5.8161 C   0  0  2  0  0  0  0  0  0  0  0  0
    1.8353   -1.1299   -5.9226 C   0  0  0  0  0  0  0  0  0  0  0  0
    1.6823   -2.3596   -3.7314 C   0  0  0  0  0  0  0  0  0  0  0  0
    0.4055   -1.1129   -1.9380 C   0  0  2  0  0  0  0  0  0  0  0  0
    1.4731   -2.2041   -2.2303 C   0  0  2  0  0  0  0  0  0  0  0  0
    3.1076    2.3207   -6.6639 C   0  0  0  0  0  0  0  0  0  0  0  0
    3.2164   -0.2461   -7.7637 C   0  0  0  0  0  0  0  0  0  0  0  0
    3.3461    0.9522   -8.7420 C   0  0  0  0  0  0  0  0  0  0  0  0
    3.4375    2.2438   -8.0000 C   0  0  0  0  0  0  0  0  0  0  0  0
    0.3576    1.3788   -1.9673 C   0  0  0  0  0  0  0  0  0  0  0  0
    3.8285    3.5391   -8.4193 C   0  0  0  0  0  0  0  0  0  0  0  0
    3.7678    4.3693   -7.2958 C   0  0  0  0  0  0  0  0  0  0  0  0
   -1.9818   -0.9243   -1.6557 C   0  0  0  0  0  0  0  0  0  0  0  0
    4.2427    4.0862   -9.6459 C   0  0  0  0  0  0  0  0  0  0  0  0
    3.6638   -2.7839   -1.4212 C   0  0  0  0  0  0  0  0  0  0  0  0
    4.1162    5.7238   -7.3396 C   0  0  0  0  0  0  0  0  0  0  0  0
    4.5853    5.4402   -9.7086 C   0  0  0  0  0  0  0  0  0  0  0  0
   -0.7104    3.4739   -1.7455 C   0  0  0  0  0  0  0  0  0  0  0  0
    4.5258    6.2435   -8.5711 C   0  0  0  0  0  0  0  0  0  0  0  0
    4.9444   -2.0727   -1.1829 C   0  0  0  0  0  0  0  0  0  0  0  0
    6.1048   -2.6667   -1.6728 C   0  0  0  0  0  0  0  0  0  0  0  0
    4.9940   -0.8689   -0.4842 C   0  0  0  0  0  0  0  0  0  0  0  0
    6.2220   -0.2377   -0.2789 C   0  0  0  0  0  0  0  0  0  0  0  0
    7.3462   -2.0871   -1.4171 C   0  0  0  0  0  0  0  0  0  0  0  0
    7.4069   -0.8552   -0.7347 C   0  0  0  0  0  0  0  0  0  0  0  0
    7.1565    1.9031    0.1553 C   0  0  0  0  0  0  0  0  0  0  0  0
    8.4970   -3.5986   -2.8376 C   0  0  0  0  0  0  0  0  0  0  0  0
    9.6433   -0.2628   -1.3199 C   0  0  0  0  0  0  0  0  0  0  0  0
  1 27  1  0  0  0  0
  2 29  1  0  0  0  0
  3 24  1  0  0  0  0
  3 32  1  0  0  0  0
  4 24  2  0  0  0  0
  5 29  2  0  0  0  0
  6 37  1  0  0  0  0
  6 40  1  0  0  0  0
  7 38  1  0  0  0  0
  7 41  1  0  0  0  0
  8 39  1  0  0  0  0
  8 42  1  0  0  0  0
  9 15  1  0  0  0  0
  9 16  1  0  0  0  0
  9 21  1  0  0  0  0
 10 20  1  0  0  0  0
 10 26  1  0  0  0  0
 11 12  1  0  0  0  0
 11 13  1  1  0  0  0
 11 14  1  0  0  0  0
 12 16  1  1  0  0  0
 12 17  1  0  0  0  0
 14 18  1  0  0  0  0
 14 24  1  1  0  0  0
 15 13  1  1  0  0  0
 15 20  1  0  0  0  0
 17 19  1  0  0  0  0
 18 19  1  0  0  0  0
 18  1  1  6  0  0  0
 19  2  1  1  0  0  0
 20 23  2  0  0  0  0
 21 22  1  0  0  0  0
 22 23  1  0  0  0  0
 23 25  1  0  0  0  0
 25 26  1  0  0  0  0
 25 28  2  0  0  0  0
 26 30  2  0  0  0  0
 28 31  1  0  0  0  0
 29 34  1  0  0  0  0
 30 33  1  0  0  0  0
 31 33  2  0  0  0  0
 34 35  2  0  0  0  0
 34 36  1  0  0  0  0
 35 38  1  0  0  0  0
 36 37  2  0  0  0  0
 37 39  1  0  0  0  0
 38 39  2  0  0  0  0
M  END
