1189
 OpenBabel10141417513D

 10  9  0  0  1  0  0  0  0  0999 V2000
    1.1319    0.3056    0.2955 F   0  0  0  0  0  0  0  0  0  0  0  0
    1.6844    0.5143   -2.2916 F   0  0  0  0  0  0  0  0  0  0  0  0
    3.2415    1.7647   -1.4167 F   0  0  0  0  0  0  0  0  0  0  0  0
    3.7171   -0.2581   -2.0518 F   0  0  0  0  0  0  0  0  0  0  0  0
    0.5375   -2.0297   -0.1711 F   0  0  0  0  0  0  0  0  0  0  0  0
    1.9912   -2.0222   -1.7989 F   0  0  0  0  0  0  0  0  0  0  0  0
    2.6502   -1.3755    0.2523 O   0  0  0  0  0  0  0  0  0  0  0  0
    2.4106   -0.0047   -0.0539 C   0  0  3  0  0  0  0  0  0  0  0  0
    2.7553    0.4974   -1.4688 C   0  0  0  0  0  0  0  0  0  0  0  0
    1.8352   -2.2592   -0.4889 C   0  0  0  0  0  0  0  0  0  0  0  0
  1  8  1  0  0  0  0
  2  9  1  0  0  0  0
  3  9  1  0  0  0  0
  4  9  1  0  0  0  0
  5 10  1  0  0  0  0
  6 10  1  0  0  0  0
  7  8  1  0  0  0  0
  7 10  1  0  0  0  0
  8  9  1  0  0  0  0
M  END
