967
 OpenBabel10141417493D

 22 25  0  0  0  0  0  0  0  0999 V2000
    0.9000   -0.0400    0.0618 Cl  0  0  0  0  0  0  0  0  0  0  0  0
    9.0255   -2.8428   -2.1682 N   0  0  0  0  0  0  0  0  0  0  0  0
    8.5528    0.2670    1.7252 N   0  0  0  0  0  0  0  0  0  0  0  0
    7.5728   -0.5638   -0.9781 C   0  0  0  0  0  0  0  0  0  0  0  0
    6.8917    0.0868    0.0040 C   0  0  0  0  0  0  0  0  0  0  0  0
    6.9496   -1.4357   -2.0618 C   0  0  0  0  0  0  0  0  0  0  0  0
    9.0854   -0.5513   -1.1613 C   0  0  0  0  0  0  0  0  0  0  0  0
    7.5599   -2.8473   -2.0246 C   0  0  0  0  0  0  0  0  0  0  0  0
    9.6322   -1.9868   -1.1315 C   0  0  0  0  0  0  0  0  0  0  0  0
    5.4100    0.0352    0.0205 C   0  0  0  0  0  0  0  0  0  0  0  0
    7.5938    0.9244    1.0158 C   0  0  0  0  0  0  0  0  0  0  0  0
    5.4382    2.4641   -0.6434 C   0  0  0  0  0  0  0  0  0  0  0  0
    4.6903    1.1946   -0.3167 C   0  0  0  0  0  0  0  0  0  0  0  0
    6.1456    3.0468    0.5869 C   0  0  0  0  0  0  0  0  0  0  0  0
    7.2504    2.2609    1.2650 C   0  0  0  0  0  0  0  0  0  0  0  0
    4.7283   -1.1269    0.4068 C   0  0  0  0  0  0  0  0  0  0  0  0
    3.2888    1.1619   -0.3061 C   0  0  0  0  0  0  0  0  0  0  0  0
    7.9687    2.9255    2.2762 C   0  0  0  0  0  0  0  0  0  0  0  0
    3.3330   -1.1512    0.4146 C   0  0  0  0  0  0  0  0  0  0  0  0
    2.6208   -0.0097    0.0525 C   0  0  0  0  0  0  0  0  0  0  0  0
    8.9643    2.2687    2.9889 C   0  0  0  0  0  0  0  0  0  0  0  0
    9.2144    0.9482    2.6816 C   0  0  0  0  0  0  0  0  0  0  0  0
  1 20  1  0  0  0  0
  2  8  1  0  0  0  0
  2  9  1  0  0  0  0
  3 11  1  0  0  0  0
  3 22  2  0  0  0  0
  4  5  2  0  0  0  0
  4  6  1  0  0  0  0
  4  7  1  0  0  0  0
  5 10  1  0  0  0  0
  5 11  1  0  0  0  0
  6  8  1  0  0  0  0
  7  9  1  0  0  0  0
 10 13  2  0  0  0  0
 10 16  1  0  0  0  0
 11 15  2  0  0  0  0
 12 13  1  0  0  0  0
 12 14  1  0  0  0  0
 13 17  1  0  0  0  0
 14 15  1  0  0  0  0
 15 18  1  0  0  0  0
 16 19  2  0  0  0  0
 17 20  2  0  0  0  0
 18 21  2  0  0  0  0
 19 20  1  0  0  0  0
 21 22  1  0  0  0  0
M  END
