[NO NAME]
 OpenBabel10141417523D
Created with ChemWriter - http://chemwriter.com
 74 77  0  0  1  0  0  0  0  0999 V2000
    8.8353   -8.3506    7.1368 N   0  0  0  0  0  0  0  0  0  0  0  0
    8.8758   -8.1082    8.4810 C   0  0  0  0  0  0  0  0  0  0  0  0
    7.5266   -7.8035    9.1100 C   0  0  0  0  0  0  0  0  0  0  0  0
    7.5237   -8.2682   10.4655 N   0  0  0  0  0  0  0  0  0  0  0  0
    7.3324   -7.4533   11.5514 C   0  0  0  0  0  0  0  0  0  0  0  0
    7.2102   -8.2499   12.8574 C   0  0  1  0  0  0  0  0  0  0  0  0
    6.7467   -9.6204   12.5119 N   0  0  0  0  0  0  0  0  0  0  0  0
    7.4108  -10.8049   12.6976 C   0  0  0  0  0  0  0  0  0  0  0  0
    8.6229  -10.8459   12.8934 O   0  0  0  0  0  0  0  0  0  0  0  0
    9.9423   -8.1393    9.0852 O   0  0  0  0  0  0  0  0  0  0  0  0
    7.2105   -6.2387   11.4805 O   0  0  0  0  0  0  0  0  0  0  0  0
    8.3783   -8.1163   13.8375 C   0  0  0  0  0  0  0  0  0  0  0  0
    8.1389   -8.5447   15.3109 C   0  0  0  0  0  0  0  0  0  0  0  0
    7.7194   -9.9737   15.6651 C   0  0  0  0  0  0  0  0  0  0  0  0
    6.3344  -10.3999   15.4173 N   0  0  0  0  0  0  0  0  0  0  0  0
    6.5236  -12.1052   12.7395 C   0  0  2  0  0  0  0  0  0  0  0  0
    7.4189  -13.3255   12.6525 C   0  0  0  0  0  0  0  0  0  0  0  0
    5.6818  -12.1931   11.5466 N   0  0  0  0  0  0  0  0  0  0  0  0
    7.7144  -13.3222   11.1658 C   0  0  0  0  0  0  0  0  0  0  0  0
    6.3671  -13.0055   10.5523 C   0  0  0  0  0  0  0  0  0  0  0  0
    4.3117  -12.2078   11.6011 C   0  0  0  0  0  0  0  0  0  0  0  0
    3.5641  -12.0387   10.2589 C   0  0  1  0  0  0  0  0  0  0  0  0
    3.1950  -13.3934    9.7076 N   0  0  0  0  0  0  0  0  0  0  0  0
    3.4602  -13.7387    8.3809 C   0  0  0  0  0  0  0  0  0  0  0  0
    2.8411  -15.1481    7.7730 C   0  0  1  0  0  0  0  0  0  0  0  0
    1.5296  -15.8284    8.3477 N   0  0  0  0  0  0  0  0  0  0  0  0
    3.7147  -12.4311   12.6596 O   0  0  0  0  0  0  0  0  0  0  0  0
    2.4349  -10.9599   10.4185 C   0  0  0  0  0  0  0  0  0  0  0  0
    0.6789  -11.3531   10.8604 S   0  0  0  0  0  0  0  0  0  0  0  0
    0.7584  -12.8240   12.2760 S   0  0  0  0  0  0  0  0  0  0  0  0
    4.1538  -13.0057    7.7261 O   0  0  0  0  0  0  0  0  0  0  0  0
    2.8095  -15.0889    6.2393 C   0  0  0  0  0  0  0  0  0  0  0  0
    4.2094  -15.1885    5.6562 C   0  0  0  0  0  0  0  0  0  0  0  0
    5.2331  -14.7945    6.1971 O   0  0  0  0  0  0  0  0  0  0  0  0
    4.2949  -15.7748    4.4347 N   0  0  0  0  0  0  0  0  0  0  0  0
    0.1442  -15.9830    8.1555 C   0  0  0  0  0  0  0  0  0  0  0  0
   -0.7406  -15.2627    7.0165 C   0  0  2  0  0  0  0  0  0  0  0  0
   -0.4108  -16.6242    9.0577 O   0  0  0  0  0  0  0  0  0  0  0  0
   -1.1285  -13.7855    7.0834 C   0  0  0  0  0  0  0  0  0  0  0  0
   -0.0930  -12.7218    6.6950 C   0  0  0  0  0  0  0  0  0  0  0  0
    0.8581  -12.4583    7.7825 C   0  0  0  0  0  0  0  0  0  0  0  0
    0.7676  -13.3568    8.7751 N   0  0  0  0  0  0  0  0  0  0  0  0
    1.6848  -11.5749    7.7616 O   0  0  0  0  0  0  0  0  0  0  0  0
   -2.0008  -16.0566    6.8582 N   0  0  0  0  0  0  0  0  0  0  0  0
   -4.4915  -12.8511    7.1479 C   0  0  0  0  0  0  0  0  0  0  0  0
   -4.9736  -12.1462    6.0322 C   0  0  0  0  0  0  0  0  0  0  0  0
   -5.0394  -14.2268    7.4749 C   0  0  0  0  0  0  0  0  0  0  0  0
   -4.1929  -15.3028    8.2315 C   0  0  1  0  0  0  0  0  0  0  0  0
   -3.2530  -16.2085    7.3423 C   0  0  0  0  0  0  0  0  0  0  0  0
   -2.9337  -11.0161    7.5331 C   0  0  0  0  0  0  0  0  0  0  0  0
   -3.3415  -10.3882    6.3688 C   0  0  0  0  0  0  0  0  0  0  0  0
   -3.5564  -12.1944    7.9465 C   0  0  0  0  0  0  0  0  0  0  0  0
   -4.4093  -10.9192    5.6539 C   0  0  0  0  0  0  0  0  0  0  0  0
   -2.4074  -15.0860   11.8391 N   0  0  0  0  0  0  0  0  0  0  0  0
   -1.5822  -15.5985   12.8093 C   0  0  0  0  0  0  0  0  0  0  0  0
   -0.1115  -15.5166   12.4789 C   0  0  0  0  0  0  0  0  0  0  0  0
    0.3069  -14.4263   11.4869 C   0  0  0  0  0  0  0  0  0  0  0  0
   -4.4945  -15.2892   10.7377 C   0  0  0  0  0  0  0  0  0  0  0  0
   -5.5801  -15.8578   10.7027 O   0  0  0  0  0  0  0  0  0  0  0  0
   -3.8379  -14.8384   12.0705 C   0  0  2  0  0  0  0  0  0  0  0  0
   -3.7711  -14.9341    9.5890 N   0  0  0  0  0  0  0  0  0  0  0  0
   -3.7542  -17.2643    6.9085 O   0  0  0  0  0  0  0  0  0  0  0  0
   -4.1606  -13.3484   12.3881 C   0  0  0  0  0  0  0  0  0  0  0  0
   -2.2078  -12.6863   13.8426 C   0  0  0  0  0  0  0  0  0  0  0  0
   -3.5877  -12.7434   13.6664 C   0  0  0  0  0  0  0  0  0  0  0  0
   -1.5863  -12.1310   14.9655 C   0  0  0  0  0  0  0  0  0  0  0  0
   -2.3775  -11.5790   15.9445 C   0  0  0  0  0  0  0  0  0  0  0  0
   -4.3638  -12.1386   14.6562 C   0  0  0  0  0  0  0  0  0  0  0  0
   -3.7596  -11.5560   15.7879 C   0  0  0  0  0  0  0  0  0  0  0  0
   -1.9834  -16.0798   13.8648 O   0  0  0  0  0  0  0  0  0  0  0  0
   -1.8323  -11.0609   17.0796 O   0  0  0  0  0  0  0  0  0  0  0  0
    5.3100   -9.6880   14.8861 C   0  0  0  0  0  0  0  0  0  0  0  0
    5.1335   -8.4224   14.9837 N   0  0  0  0  0  0  0  0  0  0  0  0
    4.5389  -10.3585   14.0088 N   0  0  0  0  0  0  0  0  0  0  0  0
  1  2  1  0  0  0  0
  2  3  1  0  0  0  0
  2 10  2  0  0  0  0
  3  4  1  0  0  0  0
  4  5  1  0  0  0  0
  5 11  2  0  0  0  0
  6  5  1  6  0  0  0
  6  7  1  0  0  0  0
  6 12  1  0  0  0  0
  7  8  1  0  0  0  0
  8  9  2  0  0  0  0
 12 13  1  0  0  0  0
 13 14  1  0  0  0  0
 14 15  1  0  0  0  0
 15 72  1  0  0  0  0
 16  8  1  6  0  0  0
 16 17  1  0  0  0  0
 16 18  1  0  0  0  0
 17 19  1  0  0  0  0
 18 20  1  0  0  0  0
 18 21  1  0  0  0  0
 19 20  1  0  0  0  0
 21 27  2  0  0  0  0
 22 23  1  0  0  0  0
 22 28  1  0  0  0  0
 22 21  1  1  0  0  0
 23 24  1  0  0  0  0
 24 25  1  0  0  0  0
 24 31  2  0  0  0  0
 25 26  1  0  0  0  0
 25 32  1  6  0  0  0
 26 36  1  0  0  0  0
 28 29  1  0  0  0  0
 29 30  1  0  0  0  0
 30 57  1  0  0  0  0
 32 33  1  0  0  0  0
 33 34  2  0  0  0  0
 33 35  1  0  0  0  0
 36 37  1  0  0  0  0
 36 38  2  0  0  0  0
 37 44  1  0  0  0  0
 37 39  1  1  0  0  0
 39 40  1  0  0  0  0
 40 41  1  0  0  0  0
 41 42  1  0  0  0  0
 41 43  2  0  0  0  0
 44 49  1  0  0  0  0
 45 47  1  0  0  0  0
 45 52  1  0  0  0  0
 45 46  2  0  0  0  0
 46 53  1  0  0  0  0
 48 47  1  6  0  0  0
 48 61  1  0  0  0  0
 48 49  1  0  0  0  0
 49 62  2  0  0  0  0
 50 51  1  0  0  0  0
 50 52  2  0  0  0  0
 51 53  2  0  0  0  0
 54 55  1  0  0  0  0
 54 60  1  0  0  0  0
 55 56  1  0  0  0  0
 55 70  2  0  0  0  0
 56 57  1  0  0  0  0
 58 59  2  0  0  0  0
 58 60  1  0  0  0  0
 58 61  1  0  0  0  0
 60 63  1  6  0  0  0
 63 65  1  0  0  0  0
 64 66  2  0  0  0  0
 64 65  1  0  0  0  0
 65 68  2  0  0  0  0
 66 67  1  0  0  0  0
 67 69  2  0  0  0  0
 67 71  1  0  0  0  0
 68 69  1  0  0  0  0
 72 73  2  0  0  0  0
 72 74  1  0  0  0  0
M  END
