547
 OpenBabel10141418363D

 27 30  0  0  1  0  0  0  0  0999 V2000
    4.9103    0.1066   -6.6987 F   0  0  0  0  0  0  0  0  0  0  0  0
    2.4746    0.6533   -5.4570 O   0  0  0  0  0  0  0  0  0  0  0  0
    3.4625   -3.7526   -8.7477 O   0  0  0  0  0  0  0  0  0  0  0  0
    0.5111   -4.9993   -7.5544 O   0  0  0  0  0  0  0  0  0  0  0  0
    7.7912    2.0731   -1.2340 O   0  0  0  0  0  0  0  0  0  0  0  0
    3.5802   -2.9379   -5.5243 C   0  0  1  0  0  0  0  0  0  0  0  0
    5.0400   -2.6547   -5.9206 C   0  0  2  0  0  0  0  0  0  0  0  0
    5.6831   -1.4780   -5.1663 C   0  0  1  0  0  0  0  0  0  0  0  0
    4.8253   -0.1819   -5.3479 C   0  0  1  0  0  0  0  0  0  0  0  0
    3.2717   -4.2135   -6.3669 C   0  0  2  0  0  0  0  0  0  0  0  0
    5.6995   -4.0256   -5.8190 C   0  0  0  0  0  0  0  0  0  0  0  0
    2.7671   -1.6704   -5.8171 C   0  0  0  0  0  0  0  0  0  0  0  0
    4.6458   -4.9669   -6.4445 C   0  0  1  0  0  0  0  0  0  0  0  0
    3.3105   -0.4402   -5.0664 C   0  0  2  0  0  0  0  0  0  0  0  0
    5.4595    1.0533   -4.5620 C   0  0  1  0  0  0  0  0  0  0  0  0
    7.1332   -1.2684   -5.6828 C   0  0  0  0  0  0  0  0  0  0  0  0
    3.3948   -3.3112   -4.0277 C   0  0  0  0  0  0  0  0  0  0  0  0
    7.6059    0.1863   -5.6694 C   0  0  0  0  0  0  0  0  0  0  0  0
    6.9883    0.8848   -4.4952 C   0  0  0  0  0  0  0  0  0  0  0  0
    2.7238   -3.9300   -7.7765 C   0  0  0  0  0  0  0  0  0  0  0  0
    4.6195   -6.3335   -5.7679 C   0  0  0  0  0  0  0  0  0  0  0  0
    5.1719    2.3697   -5.3272 C   0  0  0  0  0  0  0  0  0  0  0  0
    4.9060    1.2640   -3.1503 C   0  0  0  0  0  0  0  0  0  0  0  0
    7.7400    1.2093   -3.4278 C   0  0  0  0  0  0  0  0  0  0  0  0
    1.2064   -3.8283   -7.9371 C   0  0  0  0  0  0  0  0  0  0  0  0
    5.6490    1.5721   -2.0782 C   0  0  0  0  0  0  0  0  0  0  0  0
    7.1203    1.6795   -2.1721 C   0  0  0  0  0  0  0  0  0  0  0  0
  3 20  2  0  0  0  0
  4 25  1  0  0  0  0
  5 27  2  0  0  0  0
  6  7  1  0  0  0  0
  6 10  1  0  0  0  0
  6 12  1  0  0  0  0
  6 17  1  6  0  0  0
  7  8  1  0  0  0  0
  7 11  1  6  0  0  0
  8  9  1  0  0  0  0
  8 16  1  1  0  0  0
  9 14  1  0  0  0  0
  9 15  1  0  0  0  0
  9  1  1  1  0  0  0
 10 13  1  0  0  0  0
 10 20  1  6  0  0  0
 11 13  1  0  0  0  0
 12 14  1  0  0  0  0
 13 21  1  1  0  0  0
 14  2  1  6  0  0  0
 15 19  1  0  0  0  0
 15 23  1  0  0  0  0
 15 22  1  6  0  0  0
 16 18  1  0  0  0  0
 18 19  1  0  0  0  0
 19 24  2  0  0  0  0
 20 25  1  0  0  0  0
 23 26  2  0  0  0  0
 24 27  1  0  0  0  0
 26 27  1  0  0  0  0
M  END
