1234
 OpenBabel10141417533D

 28 31  0  0  1  0  0  0  0  0999 V2000
    4.6995   -0.2059   -6.7579 F   0  0  0  0  0  0  0  0  0  0  0  0
    2.4338   -5.3999   -5.5108 O   0  0  0  0  0  0  0  0  0  0  0  0
    2.3628    0.2922   -5.4043 O   0  0  0  0  0  0  0  0  0  0  0  0
    3.7386   -4.0853   -8.5554 O   0  0  0  0  0  0  0  0  0  0  0  0
    0.5707   -4.1677   -6.8943 O   0  0  0  0  0  0  0  0  0  0  0  0
    7.7142    2.4309   -1.6540 O   0  0  0  0  0  0  0  0  0  0  0  0
    3.6543   -3.2538   -5.3741 C   0  0  1  0  0  0  0  0  0  0  0  0
    5.0777   -2.8987   -5.8458 C   0  0  2  0  0  0  0  0  0  0  0  0
    5.6771   -1.6420   -5.1849 C   0  0  1  0  0  0  0  0  0  0  0  0
    4.7248   -0.4197   -5.3872 C   0  0  1  0  0  0  0  0  0  0  0  0
    3.3943   -4.5815   -6.1725 C   0  0  1  0  0  0  0  0  0  0  0  0
    5.8255   -4.2224   -5.7017 C   0  0  0  0  0  0  0  0  0  0  0  0
    2.7445   -2.0563   -5.6912 C   0  0  0  0  0  0  0  0  0  0  0  0
    4.8019   -5.2892   -6.1739 C   0  0  1  0  0  0  0  0  0  0  0  0
    3.2500   -0.7612   -5.0215 C   0  0  2  0  0  0  0  0  0  0  0  0
    5.3058    0.9084   -4.7176 C   0  0  1  0  0  0  0  0  0  0  0  0
    7.0847   -1.3639   -5.7795 C   0  0  0  0  0  0  0  0  0  0  0  0
    3.5662   -3.5359   -3.8449 C   0  0  0  0  0  0  0  0  0  0  0  0
    7.4508    0.1181   -5.8844 C   0  0  0  0  0  0  0  0  0  0  0  0
    6.8445    0.8589   -4.7305 C   0  0  0  0  0  0  0  0  0  0  0  0
    2.9392   -4.3402   -7.6486 C   0  0  0  0  0  0  0  0  0  0  0  0
    4.8975   -6.5751   -5.3537 C   0  0  0  0  0  0  0  0  0  0  0  0
    4.8789    2.1502   -5.5418 C   0  0  0  0  0  0  0  0  0  0  0  0
    4.8141    1.1804   -3.2953 C   0  0  0  0  0  0  0  0  0  0  0  0
    7.6205    1.3417   -3.7444 C   0  0  0  0  0  0  0  0  0  0  0  0
    1.4468   -4.4489   -7.9749 C   0  0  0  0  0  0  0  0  0  0  0  0
    5.5843    1.6476   -2.3008 C   0  0  0  0  0  0  0  0  0  0  0  0
    7.0305    1.8798   -2.5009 C   0  0  0  0  0  0  0  0  0  0  0  0
  4 21  2  0  0  0  0
  5 26  1  0  0  0  0
  6 28  2  0  0  0  0
  7  8  1  0  0  0  0
  7 11  1  0  0  0  0
  7 13  1  0  0  0  0
  7 18  1  6  0  0  0
  8  9  1  0  0  0  0
  8 12  1  6  0  0  0
  9 10  1  0  0  0  0
  9 17  1  1  0  0  0
 10 15  1  0  0  0  0
 10 16  1  0  0  0  0
 10  1  1  1  0  0  0
 11 14  1  0  0  0  0
 11 21  1  6  0  0  0
 11  2  1  0  0  0  0
 12 14  1  0  0  0  0
 13 15  1  0  0  0  0
 14 22  1  1  0  0  0
 15  3  1  6  0  0  0
 16 20  1  0  0  0  0
 16 24  1  0  0  0  0
 16 23  1  6  0  0  0
 17 19  1  0  0  0  0
 19 20  1  0  0  0  0
 20 25  2  0  0  0  0
 21 26  1  0  0  0  0
 24 27  2  0  0  0  0
 25 28  1  0  0  0  0
 27 28  1  0  0  0  0
M  END
