
 OpenBabel10141417513D

 16 16  0  0  1  0  0  0  0  0999 V2000
   -2.9049    0.4432    0.1247 C   0  0  0  0  0  0  0  0  0  0  0  0
   -1.7701    0.1787    1.0823 C   0  0  0  0  0  0  0  0  0  0  0  0
   -1.7655   -0.9539    1.9070 C   0  0  0  0  0  0  0  0  0  0  0  0
   -0.6738   -1.2514    2.7382 C   0  0  0  0  0  0  0  0  0  0  0  0
   -3.8597   -0.5303    0.1295 F   0  0  0  0  0  0  0  0  0  0  0  0
   -2.4839    0.5377   -1.1685 F   0  0  0  0  0  0  0  0  0  0  0  0
   -0.6350   -2.5555    3.5104 C   0  0  0  0  0  0  0  0  0  0  0  0
    0.0387   -4.9297    3.5950 N   0  0  0  0  0  0  0  0  0  0  0  0
   -0.6749    1.0573    1.1375 C   0  0  0  0  0  0  0  0  0  0  0  0
    0.0545   -3.7195    2.7417 C   0  0  1  0  0  0  0  0  0  0  0  0
    0.3984    0.7904    1.9872 C   0  0  0  0  0  0  0  0  0  0  0  0
    0.4075   -0.3590    2.7760 C   0  0  0  0  0  0  0  0  0  0  0  0
   -0.6237   -3.9774    1.3873 C   0  0  0  0  0  0  0  0  0  0  0  0
   -3.5577    1.6074    0.3902 F   0  0  0  0  0  0  0  0  0  0  0  0
    0.8648   -6.0198    3.0707 C   0  0  0  0  0  0  0  0  0  0  0  0
    0.8152   -7.2423    3.9798 C   0  0  0  0  0  0  0  0  0  0  0  0
  1 14  1  0  0  0  0
  2  1  1  0  0  0  0
  3  2  2  0  0  0  0
  4  3  1  0  0  0  0
  5  1  1  0  0  0  0
  6  1  1  0  0  0  0
  7  4  1  0  0  0  0
  8 15  1  0  0  0  0
  9  2  1  0  0  0  0
 10  7  1  1  0  0  0
 10  8  1  0  0  0  0
 11  9  2  0  0  0  0
 12  4  2  0  0  0  0
 12 11  1  0  0  0  0
 13 10  1  0  0  0  0
 15 16  1  0  0  0  0
M  END
