
 OpenBabel10141417483D

 15 16  0  0  1  0  0  0  0  0999 V2000
   -1.3036   -2.8568   -2.9359 N   0  0  0  0  0  0  0  0  0  0  0  0
   -0.6400   -2.9078   -1.7212 C   0  0  0  0  0  0  0  0  0  0  0  0
    0.1566   -1.0115   -0.4252 C   0  0  0  0  0  0  0  0  0  0  0  0
   -1.0234   -1.9733   -0.6047 C   0  0  2  0  0  0  0  0  0  0  0  0
    1.1439   -1.2948    0.5432 C   0  0  0  0  0  0  0  0  0  0  0  0
   -1.4588   -2.7229    0.6610 C   0  0  0  0  0  0  0  0  0  0  0  0
    2.2402   -0.4591    0.7379 C   0  0  0  0  0  0  0  0  0  0  0  0
    0.2954   -3.9253   -1.7520 C   0  0  0  0  0  0  0  0  0  0  0  0
    2.3980    0.6692   -0.0533 C   0  0  0  0  0  0  0  0  0  0  0  0
    0.2109   -4.4691   -3.0057 N   0  0  0  0  0  0  0  0  0  0  0  0
   -0.7611   -3.7928   -3.6827 C   0  0  0  0  0  0  0  0  0  0  0  0
    0.3050    0.1683   -1.2112 C   0  0  0  0  0  0  0  0  0  0  0  0
   -0.7058    0.5331   -2.2757 C   0  0  0  0  0  0  0  0  0  0  0  0
    1.4564    0.9836   -1.0428 C   0  0  0  0  0  0  0  0  0  0  0  0
    1.7126    2.1918   -1.9064 C   0  0  0  0  0  0  0  0  0  0  0  0
  1 11  2  0  0  0  0
  2  1  1  0  0  0  0
  2  8  2  0  0  0  0
  3 12  2  0  0  0  0
  3  5  1  0  0  0  0
  4  6  1  1  0  0  0
  4  2  1  0  0  0  0
  4  3  1  0  0  0  0
  5  7  2  0  0  0  0
  7  9  1  0  0  0  0
  8 10  1  0  0  0  0
 10 11  1  0  0  0  0
 12 14  1  0  0  0  0
 12 13  1  0  0  0  0
 14  9  2  0  0  0  0
 14 15  1  0  0  0  0
M  END
