154101
 OpenBabel10141417543D

 17 18  0  0  1  0  0  0  0  0999 V2000
    0.4574   -1.0292   -0.1931 O   0  0  0  0  0  0  0  0  0  0  0  0
    0.8995    0.4179   -1.9188 O   0  0  0  0  0  0  0  0  0  0  0  0
   -1.5600    1.9659   -0.0417 N   0  0  0  0  0  0  0  0  0  0  0  0
   -1.9591    1.2516   -1.2752 C   0  0  2  0  0  0  0  0  0  0  0  0
   -3.4988    1.3306   -1.3933 C   0  0  0  0  0  0  0  0  0  0  0  0
   -1.4138   -0.2097   -1.4020 C   0  0  1  0  0  0  0  0  0  0  0  0
   -4.2061    0.7716   -0.1607 C   0  0  0  0  0  0  0  0  0  0  0  0
   -3.6877    1.4519    1.1013 C   0  0  0  0  0  0  0  0  0  0  0  0
   -2.1632    1.4241    1.1726 C   0  0  0  0  0  0  0  0  0  0  0  0
   -1.8088   -0.8892   -2.7095 C   0  0  0  0  0  0  0  0  0  0  0  0
    0.1071   -0.2207   -1.2398 C   0  0  0  0  0  0  0  0  0  0  0  0
   -2.5630   -2.0739   -2.6960 C   0  0  0  0  0  0  0  0  0  0  0  0
   -1.4319   -0.3470   -3.9481 C   0  0  0  0  0  0  0  0  0  0  0  0
   -2.9230   -2.6990   -3.8925 C   0  0  0  0  0  0  0  0  0  0  0  0
   -1.7921   -0.9735   -5.1405 C   0  0  0  0  0  0  0  0  0  0  0  0
   -2.5357   -2.1498   -5.1131 C   0  0  0  0  0  0  0  0  0  0  0  0
    1.8611   -1.0835    0.0700 C   0  0  0  0  0  0  0  0  0  0  0  0
  1 11  1  0  0  0  0
  1 17  1  0  0  0  0
  2 11  2  0  0  0  0
  3  9  1  0  0  0  0
  4  3  1  1  0  0  0
  4  5  1  0  0  0  0
  4  6  1  0  0  0  0
  5  7  1  0  0  0  0
  6 10  1  6  0  0  0
  6 11  1  0  0  0  0
  7  8  1  0  0  0  0
  8  9  1  0  0  0  0
 10 12  2  0  0  0  0
 10 13  1  0  0  0  0
 12 14  1  0  0  0  0
 13 15  2  0  0  0  0
 14 16  2  0  0  0  0
 15 16  1  0  0  0  0
M  END
