1576
 OpenBabel10141417483D

 10 10  0  0  1  0  0  0  0  0999 V2000
    3.0258    1.2073   -0.0867 N   0  0  0  0  0  0  0  0  0  0  0  0
    2.9806   -0.2625   -0.0507 C   0  0  2  0  0  0  0  0  0  0  0  0
    1.5460   -0.7307    0.2806 C   0  0  0  0  0  0  0  0  0  0  0  0
    1.3522   -2.2311    0.2332 C   0  0  0  0  0  0  0  0  0  0  0  0
    4.0138   -0.7693    0.9572 C   0  0  0  0  0  0  0  0  0  0  0  0
    0.9279   -2.9260    1.3746 C   0  0  0  0  0  0  0  0  0  0  0  0
    1.5699   -2.9475   -0.9515 C   0  0  0  0  0  0  0  0  0  0  0  0
    0.7429   -4.3103    1.3338 C   0  0  0  0  0  0  0  0  0  0  0  0
    1.3894   -4.3317   -0.9889 C   0  0  0  0  0  0  0  0  0  0  0  0
    0.9775   -5.0124    0.1544 C   0  0  0  0  0  0  0  0  0  0  0  0
  2  5  1  1  0  0  0
  2  3  1  0  0  0  0
  2  1  1  0  0  0  0
  3  4  1  0  0  0  0
  4  6  2  0  0  0  0
  4  7  1  0  0  0  0
  6  8  1  0  0  0  0
  7  9  2  0  0  0  0
  8 10  2  0  0  0  0
  9 10  1  0  0  0  0
M  END
