
 OpenBabel10141417543D

 20 23  0  0  0  0  0  0  0  0999 V2000
   -1.8229    1.0658    0.3344 C   0  0  0  0  0  0  0  0  0  0  0  0
   -2.8351    0.1401    0.0884 C   0  0  0  0  0  0  0  0  0  0  0  0
   -2.5382   -1.2147   -0.0322 C   0  0  0  0  0  0  0  0  0  0  0  0
   -1.2102   -1.6334    0.0773 C   0  0  0  0  0  0  0  0  0  0  0  0
    1.5795   -2.2597   -0.7241 C   0  0  0  0  0  0  0  0  0  0  0  0
    2.9710   -2.1410   -1.3430 C   0  0  0  0  0  0  0  0  0  0  0  0
    3.1939   -0.7596   -1.9662 C   0  0  0  0  0  0  0  0  0  0  0  0
    2.5458    0.3808   -1.1708 C   0  0  0  0  0  0  0  0  0  0  0  0
    1.8827    1.0731    1.2510 C   0  0  2  0  0  0  0  0  0  0  0  0
    0.5636    1.6923    0.7591 C   0  0  0  0  0  0  0  0  0  0  0  0
   -0.4890    0.6502    0.4578 C   0  0  0  0  0  0  0  0  0  0  0  0
   -0.1602   -0.7113    0.2941 C   0  0  0  0  0  0  0  0  0  0  0  0
    1.3065   -1.2067    0.3983 C   0  0  2  0  0  0  0  0  0  0  0  0
    2.3244   -0.0405    0.2862 C   0  0  1  0  0  0  0  0  0  0  0  0
    1.5044   -1.8156    1.8189 C   0  0  0  0  0  0  0  0  0  0  0  0
    2.1030   -0.8222    2.8391 C   0  0  0  0  0  0  0  0  0  0  0  0
    1.6713    0.5608    2.6317 N   0  0  0  0  0  0  0  0  0  0  0  0
   -3.6224   -2.0194   -0.2534 O   0  0  0  0  0  0  0  0  0  0  0  0
   -3.3749   -3.4139   -0.3741 C   0  0  0  0  0  0  0  0  0  0  0  0
    2.2310    1.4564    3.6390 C   0  0  0  0  0  0  0  0  0  0  0  0
  2  1  2  0  0  0  0
  3  2  1  0  0  0  0
  3 18  1  0  0  0  0
  4 12  1  0  0  0  0
  4  3  2  0  0  0  0
  5 13  1  0  0  0  0
  6  5  1  0  0  0  0
  7  6  1  0  0  0  0
  7  8  1  0  0  0  0
  9 10  1  6  0  0  0
  9 17  1  0  0  0  0
 10 11  1  0  0  0  0
 11  1  1  0  0  0  0
 12 11  2  0  0  0  0
 13 12  1  6  0  0  0
 13 15  1  0  0  0  0
 14  9  1  0  0  0  0
 14 13  1  0  0  0  0
 14  8  1  6  0  0  0
 16 15  1  0  0  0  0
 17 16  1  0  0  0  0
 17 20  1  0  0  0  0
 19 18  1  0  0  0  0
M  END
