
 OpenBabel10141417483D

 18 20  0  0  1  0  0  0  0  0999 V2000
   -3.8775    2.0110    2.6890 C   0  0  0  0  0  0  0  0  0  0  0  0
   -5.4115    2.3085    2.7800 C   0  0  1  0  0  0  0  0  0  0  0  0
   -3.2658    0.9261    1.7830 C   0  0  0  0  0  0  0  0  0  0  0  0
   -7.8134    5.6583   -0.4925 C   0  0  0  0  0  0  0  0  0  0  0  0
   -7.5216    6.3998    0.6367 C   0  0  0  0  0  0  0  0  0  0  0  0
   -6.9167    5.7736    1.7293 C   0  0  0  0  0  0  0  0  0  0  0  0
   -7.5701    4.2953   -0.5275 C   0  0  0  0  0  0  0  0  0  0  0  0
   -6.9448    3.6525    0.5555 C   0  0  0  0  0  0  0  0  0  0  0  0
   -6.5750    4.4085    1.6892 C   0  0  0  0  0  0  0  0  0  0  0  0
   -5.7480    3.8339    2.8279 C   0  0  0  0  0  0  0  0  0  0  0  0
   -6.4008    1.5841    1.8586 C   0  0  1  0  0  0  0  0  0  0  0  0
   -6.4455    2.1998    0.4187 C   0  0  2  0  0  0  0  0  0  0  0  0
   -6.3034    0.1233    2.0040 N   0  0  0  0  0  0  0  0  0  0  0  0
   -8.2811    6.2415   -1.6341 O   0  0  0  0  0  0  0  0  0  0  0  0
   -4.1936    1.2643   -0.5695 C   0  0  0  0  0  0  0  0  0  0  0  0
   -5.0958    2.4461   -0.3025 C   0  0  0  0  0  0  0  0  0  0  0  0
   -2.9742    1.3017    0.3287 C   0  0  0  0  0  0  0  0  0  0  0  0
   -7.3837    1.3407   -0.4622 C   0  0  0  0  0  0  0  0  0  0  0  0
  1  3  1  0  0  0  0
  2  1  1  6  0  0  0
  2 11  1  0  0  0  0
  3 17  1  0  0  0  0
  4  5  2  0  0  0  0
  4 14  1  0  0  0  0
  5  6  1  0  0  0  0
  6  9  2  0  0  0  0
  7  4  1  0  0  0  0
  8  9  1  0  0  0  0
  8  7  2  0  0  0  0
  8 12  1  0  0  0  0
  9 10  1  0  0  0  0
 10  2  1  0  0  0  0
 11 12  1  0  0  0  0
 11 13  1  6  0  0  0
 12 16  1  0  0  0  0
 12 18  1  6  0  0  0
 15 17  1  0  0  0  0
 16 15  1  0  0  0  0
M  END
