2140
 OpenBabel10141417493D

 20 20  0  0  0  0  0  0  0  0999 V2000
    1.2732    0.0415   -2.1913 I   0  0  0  0  0  0  0  0  0  0  0  0
    5.6461   -2.9888    0.9233 I   0  0  0  0  0  0  0  0  0  0  0  0
    6.1150    3.1306   -0.4253 I   0  0  0  0  0  0  0  0  0  0  0  0
    7.5539    0.9760    1.2392 O   0  0  0  0  0  0  0  0  0  0  0  0
    7.9015   -0.9202    0.1152 O   0  0  0  0  0  0  0  0  0  0  0  0
    3.1997    2.9375    1.4445 O   0  0  0  0  0  0  0  0  0  0  0  0
    4.4337   -3.5188   -2.2090 O   0  0  0  0  0  0  0  0  0  0  0  0
    2.9264    2.4350   -0.8040 N   0  0  0  0  0  0  0  0  0  0  0  0
    2.9089   -2.3887   -0.8792 N   0  0  0  0  0  0  0  0  0  0  0  0
    3.6980    1.2388   -0.7256 C   0  0  0  0  0  0  0  0  0  0  0  0
    3.6827   -1.2061   -0.7068 C   0  0  0  0  0  0  0  0  0  0  0  0
    3.0843    0.0201   -1.0522 C   0  0  0  0  0  0  0  0  0  0  0  0
    5.7025    0.0210    0.0277 C   0  0  0  0  0  0  0  0  0  0  0  0
    4.9711   -1.1935   -0.1081 C   0  0  0  0  0  0  0  0  0  0  0  0
    5.0437    1.2347   -0.2868 C   0  0  0  0  0  0  0  0  0  0  0  0
    7.1456   -0.0346    0.4383 C   0  0  0  0  0  0  0  0  0  0  0  0
    2.7352    3.2054    0.3392 C   0  0  0  0  0  0  0  0  0  0  0  0
    3.3582   -3.4671   -1.6237 C   0  0  0  0  0  0  0  0  0  0  0  0
    1.8872    4.4299    0.1162 C   0  0  0  0  0  0  0  0  0  0  0  0
    2.3663   -4.6018   -1.6882 C   0  0  0  0  0  0  0  0  0  0  0  0
  1 12  1  0  0  0  0
  2 14  1  0  0  0  0
  3 15  1  0  0  0  0
  4 16  1  0  0  0  0
  5 16  2  0  0  0  0
  6 17  2  0  0  0  0
  7 18  2  0  0  0  0
  8 10  1  0  0  0  0
  8 17  1  0  0  0  0
  9 11  1  0  0  0  0
  9 18  1  0  0  0  0
 10 12  2  0  0  0  0
 10 15  1  0  0  0  0
 11 12  1  0  0  0  0
 11 14  2  0  0  0  0
 13 14  1  0  0  0  0
 13 15  2  0  0  0  0
 13 16  1  0  0  0  0
 17 19  1  0  0  0  0
 18 20  1  0  0  0  0
M  END
