1119
 OpenBabel10141417533D

 14 15  0  0  0  0  0  0  0  0999 V2000
    1.0861    0.1970   -0.0043 Cl  0  0  0  0  0  0  0  0  0  0  0  0
    5.5973   -2.8008   -0.0675 S   0  0  0  0  0  0  0  0  0  0  0  0
    5.2442   -3.3794   -1.3496 O   0  0  0  0  0  0  0  0  0  0  0  0
    5.2037   -3.4498    1.1682 O   0  0  0  0  0  0  0  0  0  0  0  0
    6.9995   -0.1769   -0.0359 N   0  0  0  0  0  0  0  0  0  0  0  0
    7.1938   -2.5598   -0.0351 N   0  0  0  0  0  0  0  0  0  0  0  0
    4.8102   -1.2250   -0.0373 C   0  0  0  0  0  0  0  0  0  0  0  0
    5.6089   -0.0871   -0.0290 C   0  0  0  0  0  0  0  0  0  0  0  0
    7.6806   -1.3679   -0.0275 C   0  0  0  0  0  0  0  0  0  0  0  0
    3.4128   -1.1631   -0.0275 C   0  0  0  0  0  0  0  0  0  0  0  0
    4.9711    1.1587   -0.0177 C   0  0  0  0  0  0  0  0  0  0  0  0
    2.8010    0.0829   -0.0140 C   0  0  0  0  0  0  0  0  0  0  0  0
    3.5731    1.2445   -0.0103 C   0  0  0  0  0  0  0  0  0  0  0  0
    9.1935   -1.2819   -0.0061 C   0  0  0  0  0  0  0  0  0  0  0  0
  1 12  1  0  0  0  0
  2  3  2  0  0  0  0
  2  4  2  0  0  0  0
  2  6  1  0  0  0  0
  2  7  1  0  0  0  0
  5  8  1  0  0  0  0
  5  9  1  0  0  0  0
  6  9  2  0  0  0  0
  7  8  2  0  0  0  0
  7 10  1  0  0  0  0
  8 11  1  0  0  0  0
  9 14  1  0  0  0  0
 10 12  2  0  0  0  0
 11 13  2  0  0  0  0
 12 13  1  0  0  0  0
M  END
