586
 OpenBabel10141417483D

 19 20  0  0  0  0  0  0  0  0999 V2000
    4.7971   -2.6167   -0.9727 Cl  0  0  0  0  0  0  0  0  0  0  0  0
    1.6988   -0.6556    3.0992 Cl  0  0  0  0  0  0  0  0  0  0  0  0
    0.9093   -3.9996    3.3984 O   0  0  0  0  0  0  0  0  0  0  0  0
   -0.2647   -5.9042    3.1231 O   0  0  0  0  0  0  0  0  0  0  0  0
    2.2338   -2.4706    0.5829 N   0  0  0  0  0  0  0  0  0  0  0  0
   -0.0090   -3.4305    0.6457 C   0  0  0  0  0  0  0  0  0  0  0  0
    0.8249   -2.3087    0.4592 C   0  0  0  0  0  0  0  0  0  0  0  0
    0.5304   -4.7530    1.1483 C   0  0  0  0  0  0  0  0  0  0  0  0
    3.2003   -1.4748    0.9358 C   0  0  0  0  0  0  0  0  0  0  0  0
   -1.3956   -3.3096    0.4498 C   0  0  0  0  0  0  0  0  0  0  0  0
    0.2510   -1.1046    0.0252 C   0  0  0  0  0  0  0  0  0  0  0  0
   -1.9533   -2.0972    0.0545 C   0  0  0  0  0  0  0  0  0  0  0  0
   -1.1307   -0.9955   -0.1576 C   0  0  0  0  0  0  0  0  0  0  0  0
    4.4462   -1.4548    0.2649 C   0  0  0  0  0  0  0  0  0  0  0  0
    3.0401   -0.5740    2.0070 C   0  0  0  0  0  0  0  0  0  0  0  0
    0.3360   -4.9478    2.6328 C   0  0  0  0  0  0  0  0  0  0  0  0
    5.4342   -0.5120    0.5691 C   0  0  0  0  0  0  0  0  0  0  0  0
    4.0196    0.3884    2.2933 C   0  0  0  0  0  0  0  0  0  0  0  0
    5.2068    0.4311    1.5656 C   0  0  0  0  0  0  0  0  0  0  0  0
  1 14  1  0  0  0  0
  2 15  1  0  0  0  0
  3 16  1  0  0  0  0
  4 16  2  0  0  0  0
  5  7  1  0  0  0  0
  5  9  1  0  0  0  0
  6  7  1  0  0  0  0
  6  8  1  0  0  0  0
  6 10  2  0  0  0  0
  7 11  2  0  0  0  0
  8 16  1  0  0  0  0
  9 14  2  0  0  0  0
  9 15  1  0  0  0  0
 10 12  1  0  0  0  0
 11 13  1  0  0  0  0
 12 13  2  0  0  0  0
 14 17  1  0  0  0  0
 15 18  2  0  0  0  0
 17 19  2  0  0  0  0
 18 19  1  0  0  0  0
M  END
