
 OpenBabel10141417513D

 20 21  0  0  0  0  0  0  0  0999 V2000
    0.9808    0.9680    1.5690 C   0  0  0  0  0  0  0  0  0  0  0  0
    0.4728   -0.2015    2.1452 C   0  0  0  0  0  0  0  0  0  0  0  0
   -0.0256   -1.2075    1.3231 C   0  0  0  0  0  0  0  0  0  0  0  0
   -0.0346   -1.0594   -0.0589 C   0  0  0  0  0  0  0  0  0  0  0  0
    0.4712    0.1088   -0.6337 C   0  0  0  0  0  0  0  0  0  0  0  0
    0.9875    1.1296    0.1759 C   0  0  0  0  0  0  0  0  0  0  0  0
   -0.5208   -2.3687    1.8400 O   0  0  0  0  0  0  0  0  0  0  0  0
    1.5039    2.3781   -0.4339 C   0  0  0  0  0  0  0  0  0  0  0  0
    2.9247    2.5364   -0.7950 C   0  0  0  0  0  0  0  0  0  0  0  0
    3.5675    1.6490   -1.7926 C   0  0  0  0  0  0  0  0  0  0  0  0
    0.5836    3.3529   -0.6151 C   0  0  0  0  0  0  0  0  0  0  0  0
    3.6538    3.5009   -0.1889 C   0  0  0  0  0  0  0  0  0  0  0  0
    4.8454   -0.3533   -2.3334 C   0  0  0  0  0  0  0  0  0  0  0  0
    4.2385    0.4841   -1.3875 C   0  0  0  0  0  0  0  0  0  0  0  0
    3.5149    1.9636   -3.1557 C   0  0  0  0  0  0  0  0  0  0  0  0
    4.1279    1.1337   -4.0984 C   0  0  0  0  0  0  0  0  0  0  0  0
    4.7873   -0.0155   -3.6811 C   0  0  0  0  0  0  0  0  0  0  0  0
    0.7921    4.6844   -1.2677 C   0  0  0  0  0  0  0  0  0  0  0  0
    5.0743    3.8945   -0.4468 C   0  0  0  0  0  0  0  0  0  0  0  0
    5.3738   -0.7933   -4.6362 O   0  0  0  0  0  0  0  0  0  0  0  0
  1  2  2  0  0  0  0
  1  6  1  0  0  0  0
  2  3  1  0  0  0  0
  3  4  2  0  0  0  0
  3  7  1  0  0  0  0
  4  5  1  0  0  0  0
  5  6  2  0  0  0  0
  6  8  1  0  0  0  0
  8  9  1  0  0  0  0
  8 11  2  3  0  0  0
  9 10  1  0  0  0  0
  9 12  2  3  0  0  0
 10 15  1  0  0  0  0
 11 18  1  0  0  0  0
 12 19  1  0  0  0  0
 13 14  1  0  0  0  0
 13 17  2  0  0  0  0
 14 10  2  0  0  0  0
 15 16  2  0  0  0  0
 16 17  1  0  0  0  0
 17 20  1  0  0  0  0
M  END
