937
 OpenBabel10141417503D

 15 15  0  0  1  0  0  0  0  0999 V2000
    2.1798    0.2711    1.0066 O   0  0  0  0  0  0  0  0  0  0  0  0
    3.9531   -1.6269   -1.1212 N   0  0  0  0  0  0  0  0  0  0  0  0
    2.9642   -0.4912   -1.1337 C   0  0  3  0  0  0  0  0  0  0  0  0
    4.8718   -1.5692   -2.2838 C   0  0  0  0  0  0  0  0  0  0  0  0
    4.6905   -1.6452    0.1668 C   0  0  0  0  0  0  0  0  0  0  0  0
    1.9986   -0.5109    0.0616 C   0  0  0  0  0  0  0  0  0  0  0  0
    2.1768   -0.3055   -2.4397 C   0  0  0  0  0  0  0  0  0  0  0  0
    5.7489   -0.3206   -2.4178 C   0  0  0  0  0  0  0  0  0  0  0  0
    5.7020   -2.7774    0.3588 C   0  0  0  0  0  0  0  0  0  0  0  0
    0.8204   -1.4266    0.1339 C   0  0  0  0  0  0  0  0  0  0  0  0
    0.6990   -2.6042   -0.5870 C   0  0  0  0  0  0  0  0  0  0  0  0
   -0.2345   -1.0437    1.0038 C   0  0  0  0  0  0  0  0  0  0  0  0
   -0.4561   -3.3902   -0.4639 C   0  0  0  0  0  0  0  0  0  0  0  0
   -1.3768   -1.8303    1.1277 C   0  0  0  0  0  0  0  0  0  0  0  0
   -1.4904   -3.0051    0.3900 C   0  0  0  0  0  0  0  0  0  0  0  0
  1  6  2  0  0  0  0
  2  3  1  0  0  0  0
  2  4  1  0  0  0  0
  2  5  1  0  0  0  0
  3  6  1  0  0  0  0
  3  7  1  0  0  0  0
  4  8  1  0  0  0  0
  5  9  1  0  0  0  0
  6 10  1  0  0  0  0
 10 11  2  0  0  0  0
 10 12  1  0  0  0  0
 11 13  1  0  0  0  0
 12 14  2  0  0  0  0
 13 15  2  0  0  0  0
 14 15  1  0  0  0  0
M  END
