711
 OpenBabel10141417563D

 14 14  0  0  0  0  0  0  0  0999 V2000
    3.2683   -1.2591   -3.9030 O   0  0  0  0  0  0  0  0  0  0  0  0
    4.1478   -3.4300   -3.7755 N   0  0  0  0  0  0  0  0  0  0  0  0
    4.9512   -6.2604   -4.5181 N   0  0  0  0  0  0  0  0  0  0  0  0
    4.2456   -1.8914   -1.8152 N   0  0  0  0  0  0  0  0  0  0  0  0
    3.7595   -3.9845   -5.1104 C   0  0  0  0  0  0  0  0  0  0  0  0
    4.9999   -4.2826   -3.0846 C   0  0  0  0  0  0  0  0  0  0  0  0
    3.7586   -5.5723   -5.0899 C   0  0  0  0  0  0  0  0  0  0  0  0
    5.0772   -5.7919   -3.1605 C   0  0  0  0  0  0  0  0  0  0  0  0
    3.8537   -2.0954   -3.2632 C   0  0  0  0  0  0  0  0  0  0  0  0
    6.2058   -5.9805   -5.2090 C   0  0  0  0  0  0  0  0  0  0  0  0
    4.8681   -2.8068   -0.7988 C   0  0  0  0  0  0  0  0  0  0  0  0
    3.6256   -0.7252   -1.1310 C   0  0  0  0  0  0  0  0  0  0  0  0
    6.3902   -2.8736   -0.7609 C   0  0  0  0  0  0  0  0  0  0  0  0
    4.1099    0.6967   -1.3814 C   0  0  0  0  0  0  0  0  0  0  0  0
  1  9  2  0  0  0  0
  2  5  1  0  0  0  0
  2  6  1  0  0  0  0
  2  9  1  0  0  0  0
  3  7  1  0  0  0  0
  3  8  1  0  0  0  0
  3 10  1  0  0  0  0
  4  9  1  0  0  0  0
  4 11  1  0  0  0  0
  4 12  1  0  0  0  0
  5  7  1  0  0  0  0
  6  8  1  0  0  0  0
 11 13  1  0  0  0  0
 12 14  1  0  0  0  0
M  END
