255
 OpenBabel10141417513D

 20 21  0  0  0  0  0  0  0  0999 V2000
    1.0289   -0.5538    0.8374 O   0  0  0  0  0  0  0  0  0  0  0  0
    4.3270    6.2722   -0.9800 O   0  0  0  0  0  0  0  0  0  0  0  0
    6.4433    0.1435   -0.5496 C   0  0  0  0  0  0  0  0  0  0  0  0
    7.0149    1.3153   -0.9242 C   0  0  0  0  0  0  0  0  0  0  0  0
    7.1801   -1.1851   -0.5239 C   0  0  0  0  0  0  0  0  0  0  0  0
    8.4776    1.4524   -1.3094 C   0  0  0  0  0  0  0  0  0  0  0  0
    5.0109    0.0242   -0.1987 C   0  0  0  0  0  0  0  0  0  0  0  0
    6.2777    2.5999   -0.9241 C   0  0  0  0  0  0  0  0  0  0  0  0
    7.9382   -1.4210    0.7778 C   0  0  0  0  0  0  0  0  0  0  0  0
    8.7221    1.2274   -2.7966 C   0  0  0  0  0  0  0  0  0  0  0  0
    4.0804   -0.3429   -1.1821 C   0  0  0  0  0  0  0  0  0  0  0  0
    6.3351    3.4393    0.1981 C   0  0  0  0  0  0  0  0  0  0  0  0
    4.5763    0.2166    1.1166 C   0  0  0  0  0  0  0  0  0  0  0  0
    5.5470    3.0089   -2.0465 C   0  0  0  0  0  0  0  0  0  0  0  0
    2.7363   -0.5330   -0.8524 C   0  0  0  0  0  0  0  0  0  0  0  0
    5.6813    4.6746    0.1959 C   0  0  0  0  0  0  0  0  0  0  0  0
    3.2320    0.0264    1.4480 C   0  0  0  0  0  0  0  0  0  0  0  0
    4.8938    4.2457   -2.0487 C   0  0  0  0  0  0  0  0  0  0  0  0
    2.3256   -0.3541    0.4648 C   0  0  0  0  0  0  0  0  0  0  0  0
    4.9695    5.0683   -0.9306 C   0  0  0  0  0  0  0  0  0  0  0  0
  1 19  1  0  0  0  0
  2 20  1  0  0  0  0
  3  4  2  3  0  0  0
  3  5  1  0  0  0  0
  3  7  1  0  0  0  0
  4  6  1  0  0  0  0
  4  8  1  0  0  0  0
  5  9  1  0  0  0  0
  6 10  1  0  0  0  0
  7 11  2  0  0  0  0
  7 13  1  0  0  0  0
  8 12  2  0  0  0  0
  8 14  1  0  0  0  0
 11 15  1  0  0  0  0
 12 16  1  0  0  0  0
 13 17  2  0  0  0  0
 14 18  2  0  0  0  0
 15 19  2  0  0  0  0
 16 20  2  0  0  0  0
 17 19  1  0  0  0  0
 18 20  1  0  0  0  0
M  END
