
 OpenBabel10141417523D

 29 32  0  0  1  0  0  0  0  0999 V2000
   -3.0850    1.5880    8.3048 C   0  0  2  0  0  0  0  0  0  0  0  0
    0.5292    0.9133    5.6253 C   0  0  1  0  0  0  0  0  0  0  0  0
   -2.0539    1.8545    7.1293 C   0  0  2  0  0  0  0  0  0  0  0  0
   -4.4383    1.0128    7.7806 C   0  0  0  0  0  0  0  0  0  0  0  0
   -0.9146    0.8045    5.0440 C   0  0  2  0  0  0  0  0  0  0  0  0
   -1.9993    0.6715    6.1316 C   0  0  2  0  0  0  0  0  0  0  0  0
    1.2589    1.9600    4.6882 C   0  0  2  0  0  0  0  0  0  0  0  0
   -0.6072    2.3285    7.5001 C   0  0  2  0  0  0  0  0  0  0  0  0
   -2.5911    0.5838    9.3512 C   0  0  0  0  0  0  0  0  0  0  0  0
    0.4914    1.3252    7.1206 C   0  0  0  0  0  0  0  0  0  0  0  0
    0.3383    2.1244    3.4491 C   0  0  2  0  0  0  0  0  0  0  0  0
   -1.0585    1.9796    4.0715 C   0  0  0  0  0  0  0  0  0  0  0  0
   -3.3832    0.4673    5.5165 C   0  0  0  0  0  0  0  0  0  0  0  0
   -4.3852    0.0774    6.5878 C   0  0  2  0  0  0  0  0  0  0  0  0
   -5.3933    0.7145    8.6964 C   0  0  0  0  0  0  0  0  0  0  0  0
    2.7399    1.6035    4.3825 C   0  0  0  0  0  0  0  0  0  0  0  0
   -3.4063   -0.2936    9.9642 C   0  0  0  0  0  0  0  0  0  0  0  0
   -4.8742   -0.2980    9.6923 C   0  0  0  0  0  0  0  0  0  0  0  0
   -2.5998    2.9164    6.4207 F   0  0  0  0  0  0  0  0  0  0  0  0
    3.0793    0.8228    3.4905 O   0  0  0  0  0  0  0  0  0  0  0  0
   -5.6298   -1.0434   10.2997 O   0  0  0  0  0  0  0  0  0  0  0  0
   -3.3970    2.9394    9.0109 C   0  0  0  0  0  0  0  0  0  0  0  0
    1.1854   -0.4876    5.5676 C   0  0  0  0  0  0  0  0  0  0  0  0
   -0.4226    2.6161    8.8881 O   0  0  0  0  0  0  0  0  0  0  0  0
   -5.6102    0.0147    5.9891 F   0  0  0  0  0  0  0  0  0  0  0  0
    3.8101    2.2698    5.2345 C   0  0  0  0  0  0  0  0  0  0  0  0
    4.1592    3.5270    4.6768 O   0  0  0  0  0  0  0  0  0  0  0  0
    0.5157    1.1395    2.2936 C   0  0  0  0  0  0  0  0  0  0  0  0
    1.2356    3.2412    5.3444 O   0  0  0  0  0  0  0  0  0  0  0  0
  1 22  1  6  0  0  0
  2 23  1  6  0  0  0
  3  1  1  0  0  0  0
  3 19  1  6  0  0  0
  4  1  1  0  0  0  0
  5  2  1  0  0  0  0
  5 12  1  6  0  0  0
  6  3  1  0  0  0  0
  6  5  1  0  0  0  0
  6 13  1  6  0  0  0
  7  2  1  0  0  0  0
  7 29  1  1  0  0  0
  7 16  1  0  0  0  0
  8  3  1  0  0  0  0
  8 24  1  1  0  0  0
  9  1  1  0  0  0  0
 10  2  1  0  0  0  0
 10  8  1  0  0  0  0
 11  7  1  0  0  0  0
 11 28  1  6  0  0  0
 12 11  1  0  0  0  0
 14  4  1  0  0  0  0
 14 13  1  0  0  0  0
 14 25  1  6  0  0  0
 15  4  2  0  0  0  0
 17  9  2  0  0  0  0
 18 15  1  0  0  0  0
 18 17  1  0  0  0  0
 20 16  2  0  0  0  0
 21 18  2  0  0  0  0
 26 16  1  0  0  0  0
 27 26  1  0  0  0  0
M  END
