861
 OpenBabel10141417483D

 18 19  0  0  0  0  0  0  0  0999 V2000
    4.2431    2.1022    1.8772 F   0  0  0  0  0  0  0  0  0  0  0  0
    4.9447   -2.3886    0.7294 F   0  0  0  0  0  0  0  0  0  0  0  0
    0.2598    6.1264   -0.9088 O   0  0  0  0  0  0  0  0  0  0  0  0
   -1.7926    4.7853   -1.6176 O   0  0  0  0  0  0  0  0  0  0  0  0
   -1.7095    2.5363   -1.5704 O   0  0  0  0  0  0  0  0  0  0  0  0
    2.2626    2.4970   -0.1904 C   0  0  0  0  0  0  0  0  0  0  0  0
    2.9739    1.2159    0.0557 C   0  0  0  0  0  0  0  0  0  0  0  0
    0.9241    2.5208   -0.6315 C   0  0  0  0  0  0  0  0  0  0  0  0
    2.8900    3.7415   -0.0035 C   0  0  0  0  0  0  0  0  0  0  0  0
    0.2380    3.7240   -0.8871 C   0  0  0  0  0  0  0  0  0  0  0  0
    3.9410    1.0713    1.0720 C   0  0  0  0  0  0  0  0  0  0  0  0
    2.7074    0.0725   -0.7273 C   0  0  0  0  0  0  0  0  0  0  0  0
    0.9006    4.9365   -0.6761 C   0  0  0  0  0  0  0  0  0  0  0  0
    2.2195    4.9488   -0.2307 C   0  0  0  0  0  0  0  0  0  0  0  0
    4.6109   -0.1295    1.3000 C   0  0  0  0  0  0  0  0  0  0  0  0
    3.3652   -1.1413   -0.4963 C   0  0  0  0  0  0  0  0  0  0  0  0
    4.3124   -1.2284    0.5135 C   0  0  0  0  0  0  0  0  0  0  0  0
   -1.1673    3.6118   -1.3818 C   0  0  0  0  0  0  0  0  0  0  0  0
  1 11  1  0  0  0  0
  2 17  1  0  0  0  0
  3 13  1  0  0  0  0
  4 18  1  0  0  0  0
  5 18  2  0  0  0  0
  6  7  1  0  0  0  0
  6  8  2  0  0  0  0
  6  9  1  0  0  0  0
  7 11  2  0  0  0  0
  7 12  1  0  0  0  0
  8 10  1  0  0  0  0
  9 14  2  0  0  0  0
 10 13  2  0  0  0  0
 10 18  1  0  0  0  0
 11 15  1  0  0  0  0
 12 16  2  0  0  0  0
 13 14  1  0  0  0  0
 15 17  2  0  0  0  0
 16 17  1  0  0  0  0
M  END
