1396
 OpenBabel10141417543D

 54 61  0  0  1  0  0  0  0  0999 V2000
   -0.8959   -2.0472    1.0139 O   0  0  0  0  0  0  0  0  0  0  0  0
   -6.9376    3.4499    1.6718 O   0  0  0  0  0  0  0  0  0  0  0  0
   -7.3492   -3.9658   -1.6582 O   0  0  0  0  0  0  0  0  0  0  0  0
   -7.7981    4.6480    3.5402 O   0  0  0  0  0  0  0  0  0  0  0  0
   -8.4085   -1.9635   -2.1341 O   0  0  0  0  0  0  0  0  0  0  0  0
   -7.1882    7.5711    0.5255 O   0  0  0  0  0  0  0  0  0  0  0  0
   -7.8863    7.6616    3.5774 O   0  0  0  0  0  0  0  0  0  0  0  0
   -6.4168    8.9453    2.3944 O   0  0  0  0  0  0  0  0  0  0  0  0
   -7.4362   11.8403    2.4048 O   0  0  0  0  0  0  0  0  0  0  0  0
   -6.3252   11.9011    5.2837 O   0  0  0  0  0  0  0  0  0  0  0  0
   -6.9517   11.8861    0.0327 O   0  0  0  0  0  0  0  0  0  0  0  0
   -5.1670   15.4496    0.8189 O   0  0  0  0  0  0  0  0  0  0  0  0
   -6.1235   15.0048   -1.6553 O   0  0  0  0  0  0  0  0  0  0  0  0
   -2.0914   -1.7798    0.2833 C   0  0  1  0  0  0  0  0  0  0  0  0
   -2.6667   -0.3958    0.7611 C   0  0  1  0  0  0  0  0  0  0  0  0
   -4.1743   -0.3425    0.5029 C   0  0  1  0  0  0  0  0  0  0  0  0
   -3.1211   -2.9772    0.3152 C   0  0  2  0  0  0  0  0  0  0  0  0
   -4.7232    1.1102    0.5123 C   0  0  2  0  0  0  0  0  0  0  0  0
   -4.4602    1.8003    1.8759 C   0  0  2  0  0  0  0  0  0  0  0  0
   -4.8958   -1.3928    1.3669 C   0  0  0  0  0  0  0  0  0  0  0  0
   -4.1546   -2.7361    1.4321 C   0  0  0  0  0  0  0  0  0  0  0  0
   -3.7014   -3.1180   -1.1712 C   0  0  2  0  0  0  0  0  0  0  0  0
   -2.4398    0.0677    2.2162 C   0  0  0  0  0  0  0  0  0  0  0  0
   -1.6821   -1.7467   -1.2100 C   0  0  0  0  0  0  0  0  0  0  0  0
   -3.0851    1.4439    2.5176 C   0  0  0  0  0  0  0  0  0  0  0  0
   -2.9173   -2.0988   -2.0225 C   0  0  0  0  0  0  0  0  0  0  0  0
   -6.2164    1.1342    0.0554 C   0  0  0  0  0  0  0  0  0  0  0  0
   -5.6312    1.6908    2.8765 C   0  0  0  0  0  0  0  0  0  0  0  0
   -2.4006   -4.3106    0.6458 C   0  0  0  0  0  0  0  0  0  0  0  0
   -3.9182    1.8896   -0.5853 C   0  0  0  0  0  0  0  0  0  0  0  0
   -7.2856    1.1302    1.1436 C   0  0  0  0  0  0  0  0  0  0  0  0
   -6.9681    2.1319    2.2482 C   0  0  2  0  0  0  0  0  0  0  0  0
   -5.1922   -3.1363   -1.4280 C   0  0  0  0  0  0  0  0  0  0  0  0
   -5.9777   -4.3929   -1.4035 C   0  0  0  0  0  0  0  0  0  0  0  0
   -6.0213   -2.1485   -1.8197 C   0  0  0  0  0  0  0  0  0  0  0  0
   -6.7157    4.4938    2.6230 C   0  0  2  0  0  0  0  0  0  0  0  0
   -7.3777   -2.6612   -1.9083 C   0  0  0  0  0  0  0  0  0  0  0  0
   -6.3083    5.7815    1.9129 C   0  0  0  0  0  0  0  0  0  0  0  0
   -7.5392    6.4744    1.3600 C   0  0  1  0  0  0  0  0  0  0  0  0
   -8.8964    5.5005    3.1742 C   0  0  1  0  0  0  0  0  0  0  0  0
   -8.4713    6.8470    2.5346 C   0  0  1  0  0  0  0  0  0  0  0  0
   -9.9019    4.7807    2.2708 C   0  0  0  0  0  0  0  0  0  0  0  0
   -7.5892    9.0121    3.1906 C   0  0  2  0  0  0  0  0  0  0  0  0
   -7.3945    9.8282    4.4745 C   0  0  0  0  0  0  0  0  0  0  0  0
   -6.2585   10.8350    4.3326 C   0  0  1  0  0  0  0  0  0  0  0  0
   -5.6776   10.1317    2.0926 C   0  0  1  0  0  0  0  0  0  0  0  0
   -6.1481   11.3658    2.8742 C   0  0  1  0  0  0  0  0  0  0  0  0
   -4.2399    9.7026    2.4061 C   0  0  0  0  0  0  0  0  0  0  0  0
   -7.5529   12.5563    1.1464 C   0  0  2  0  0  0  0  0  0  0  0  0
   -7.1074   14.0219    1.2471 C   0  0  0  0  0  0  0  0  0  0  0  0
   -5.7297   14.1575    0.6118 C   0  0  1  0  0  0  0  0  0  0  0  0
   -6.7890   12.7048   -1.1465 C   0  0  1  0  0  0  0  0  0  0  0  0
   -5.7834   13.8433   -0.8868 C   0  0  1  0  0  0  0  0  0  0  0  0
   -6.2387   11.8092   -2.2546 C   0  0  0  0  0  0  0  0  0  0  0  0
  3 34  1  0  0  0  0
  3 37  1  0  0  0  0
  4 36  1  0  0  0  0
  4 40  1  0  0  0  0
  5 37  2  0  0  0  0
  8 43  1  0  0  0  0
  8 46  1  0  0  0  0
 11 49  1  0  0  0  0
 11 52  1  0  0  0  0
 14 15  1  0  0  0  0
 14 17  1  0  0  0  0
 14 24  1  0  0  0  0
 14  1  1  6  0  0  0
 15 16  1  0  0  0  0
 15 23  1  1  0  0  0
 16 18  1  0  0  0  0
 16 20  1  6  0  0  0
 17 21  1  0  0  0  0
 17 22  1  0  0  0  0
 17 29  1  6  0  0  0
 18 19  1  0  0  0  0
 18 27  1  0  0  0  0
 18 30  1  6  0  0  0
 19 25  1  1  0  0  0
 19 28  1  0  0  0  0
 20 21  1  0  0  0  0
 22 26  1  0  0  0  0
 22 33  1  1  0  0  0
 23 25  1  0  0  0  0
 24 26  1  0  0  0  0
 27 31  1  0  0  0  0
 28 32  1  0  0  0  0
 31 32  1  0  0  0  0
 32  2  1  6  0  0  0
 33 34  1  0  0  0  0
 33 35  2  0  0  0  0
 35 37  1  0  0  0  0
 36  2  1  6  0  0  0
 36 38  1  0  0  0  0
 38 39  1  0  0  0  0
 39 41  1  0  0  0  0
 39  6  1  1  0  0  0
 40 41  1  0  0  0  0
 40 42  1  6  0  0  0
 41  7  1  1  0  0  0
 43  7  1  1  0  0  0
 43 44  1  0  0  0  0
 44 45  1  0  0  0  0
 45 47  1  0  0  0  0
 45 10  1  1  0  0  0
 46 47  1  0  0  0  0
 46 48  1  1  0  0  0
 47  9  1  6  0  0  0
 49  9  1  1  0  0  0
 49 50  1  0  0  0  0
 50 51  1  0  0  0  0
 51 53  1  0  0  0  0
 51 12  1  6  0  0  0
 52 53  1  0  0  0  0
 52 54  1  6  0  0  0
 53 13  1  6  0  0  0
M  END
