
 OpenBabel10141417513D

 55 62  0  0  1  0  0  0  0  0999 V2000
    0.6653   -1.0584    2.2926 O   0  0  0  0  0  0  0  0  0  0  0  0
    1.0852   -1.6843    1.0641 C   0  0  2  0  0  0  0  0  0  0  0  0
    2.5866   -2.0306    1.1979 C   0  0  0  0  0  0  0  0  0  0  0  0
    3.2121   -2.5346   -0.1223 C   0  0  2  0  0  0  0  0  0  0  0  0
    2.9449   -1.5866   -1.3164 C   0  0  2  0  0  0  0  0  0  0  0  0
    1.4408   -1.3051   -1.4285 C   0  0  0  0  0  0  0  0  0  0  0  0
    0.8411   -0.7763   -0.1462 C   0  0  0  0  0  0  0  0  0  0  0  0
    4.7221   -2.8209   -0.0105 C   0  0  0  0  0  0  0  0  0  0  0  0
    5.3396   -3.3338   -1.3334 C   0  0  0  0  0  0  0  0  0  0  0  0
    4.9639   -2.5149   -2.5997 C   0  0  2  0  0  0  0  0  0  0  0  0
    3.4424   -2.2595   -2.6397 C   0  0  2  0  0  0  0  0  0  0  0  0
    5.4355   -2.9905   -4.0226 C   0  0  2  0  0  0  0  0  0  0  0  0
    4.6524   -4.1794   -4.6834 C   0  0  2  0  0  0  0  0  0  0  0  0
    3.1338   -4.1079   -4.3940 C   0  0  1  0  0  0  0  0  0  0  0  0
    2.7450   -3.6001   -3.0048 C   0  0  0  0  0  0  0  0  0  0  0  0
    6.9007   -3.4531   -4.0604 C   0  0  0  0  0  0  0  0  0  0  0  0
    6.8697   -4.9874   -4.0998 C   0  0  0  0  0  0  0  0  0  0  0  0
    5.3828   -5.3915   -4.0265 C   0  0  2  0  0  0  0  0  0  0  0  0
    5.1423   -6.8179   -4.4255 C   0  0  0  0  0  0  0  0  0  0  0  0
    5.1897   -7.8472   -3.6038 C   0  0  0  0  0  0  0  0  0  0  0  0
    4.9466   -9.0651   -4.3814 C   0  0  0  0  0  0  0  0  0  0  0  0
    4.7623   -8.7052   -5.6987 O   0  0  0  0  0  0  0  0  0  0  0  0
    4.8264   -7.3077   -5.8171 C   0  0  0  0  0  0  0  0  0  0  0  0
    4.9215  -10.1769   -3.9215 O   0  0  0  0  0  0  0  0  0  0  0  0
    4.8581   -4.1794   -6.2329 C   0  0  0  0  0  0  0  0  0  0  0  0
    5.2857   -1.8396   -4.8745 O   0  0  0  0  0  0  0  0  0  0  0  0
    3.6530   -0.2083   -1.1193 C   0  0  0  0  0  0  0  0  0  0  0  0
   -0.7368   -0.7705    2.3475 C   0  0  2  0  0  0  0  0  0  0  0  0
   -1.0587    0.2997    1.4585 O   0  0  0  0  0  0  0  0  0  0  0  0
   -2.4676    0.4189    1.2188 C   0  0  1  0  0  0  0  0  0  0  0  0
   -3.2497    0.3389    2.5479 C   0  0  2  0  0  0  0  0  0  0  0  0
   -2.2735    0.7098    3.6822 C   0  0  2  0  0  0  0  0  0  0  0  0
   -1.1158   -0.2998    3.7566 C   0  0  0  0  0  0  0  0  0  0  0  0
   -3.6916   -1.0261    2.6262 O   0  0  0  0  0  0  0  0  0  0  0  0
   -4.4554   -1.4227    3.7538 C   0  0  2  0  0  0  0  0  0  0  0  0
   -4.7352   -2.8172    3.6458 O   0  0  0  0  0  0  0  0  0  0  0  0
   -2.9386    0.8285    4.9380 O   0  0  0  0  0  0  0  0  0  0  0  0
   -5.7731   -0.6828    3.8871 C   0  0  0  0  0  0  0  0  0  0  0  0
   -6.5605   -0.8672    2.5972 C   0  0  1  0  0  0  0  0  0  0  0  0
   -6.7803   -2.3588    2.2471 C   0  0  1  0  0  0  0  0  0  0  0  0
   -5.5058   -3.2117    2.5054 C   0  0  1  0  0  0  0  0  0  0  0  0
   -7.8051   -0.1696    2.7156 O   0  0  0  0  0  0  0  0  0  0  0  0
   -8.6669   -4.3808    1.3343 O   0  0  0  0  0  0  0  0  0  0  0  0
   -8.3574   -4.1368    2.7053 C   0  0  1  0  0  0  0  0  0  0  0  0
   -7.9324   -2.8034    3.0026 O   0  0  0  0  0  0  0  0  0  0  0  0
   -9.9030   -3.8738    0.8140 C   0  0  1  0  0  0  0  0  0  0  0  0
  -11.0983   -4.0902    1.7554 C   0  0  2  0  0  0  0  0  0  0  0  0
  -10.7561   -3.7661    3.2122 C   0  0  2  0  0  0  0  0  0  0  0  0
   -9.5003   -4.5055    3.6315 C   0  0  0  0  0  0  0  0  0  0  0  0
  -11.5158   -5.4735    1.7082 O   0  0  0  0  0  0  0  0  0  0  0  0
  -11.8307   -4.1790    4.0610 O   0  0  0  0  0  0  0  0  0  0  0  0
   -2.6605    1.7452    0.4979 C   0  0  0  0  0  0  0  0  0  0  0  0
   -4.6415   -3.3857    1.2539 C   0  0  0  0  0  0  0  0  0  0  0  0
   -9.7629   -2.4346    0.3385 C   0  0  0  0  0  0  0  0  0  0  0  0
    2.4731   -3.2522   -5.3350 O   0  0  0  0  0  0  0  0  0  0  0  0
  2  3  1  0  0  0  0
  2  7  1  0  0  0  0
  2  1  1  1  0  0  0
  4  3  1  6  0  0  0
  4  5  1  0  0  0  0
  4  8  1  0  0  0  0
  5  6  1  0  0  0  0
  5 11  1  0  0  0  0
  5 27  1  1  0  0  0
  6  7  1  0  0  0  0
  8  9  1  0  0  0  0
 10  9  1  1  0  0  0
 10 11  1  0  0  0  0
 10 12  1  0  0  0  0
 11 15  1  6  0  0  0
 12 13  1  0  0  0  0
 12 16  1  0  0  0  0
 12 26  1  6  0  0  0
 13 14  1  0  0  0  0
 13 18  1  0  0  0  0
 13 25  1  6  0  0  0
 14 15  1  0  0  0  0
 14 55  1  6  0  0  0
 16 17  1  0  0  0  0
 17 18  1  0  0  0  0
 18 19  1  6  0  0  0
 19 20  2  0  0  0  0
 19 23  1  0  0  0  0
 20 21  1  0  0  0  0
 21 22  1  0  0  0  0
 21 24  2  0  0  0  0
 22 23  1  0  0  0  0
 28  1  1  1  0  0  0
 28 29  1  0  0  0  0
 28 33  1  0  0  0  0
 29 30  1  0  0  0  0
 30 31  1  0  0  0  0
 30 52  1  1  0  0  0
 31 32  1  0  0  0  0
 31 34  1  1  0  0  0
 32 33  1  0  0  0  0
 32 37  1  1  0  0  0
 35 34  1  6  0  0  0
 35 36  1  0  0  0  0
 35 38  1  0  0  0  0
 36 41  1  0  0  0  0
 38 39  1  0  0  0  0
 39 40  1  0  0  0  0
 39 42  1  1  0  0  0
 40 41  1  0  0  0  0
 40 45  1  1  0  0  0
 41 53  1  6  0  0  0
 43 44  1  0  0  0  0
 43 46  1  0  0  0  0
 44 45  1  6  0  0  0
 44 49  1  0  0  0  0
 46 47  1  0  0  0  0
 46 54  1  1  0  0  0
 47 48  1  0  0  0  0
 47 50  1  1  0  0  0
 48 49  1  0  0  0  0
 48 51  1  1  0  0  0
M  END
