320
 OpenBabel10141417533D

 43 50  0  0  1  0  0  0  0  0999 V2000
   -6.4793    2.7874   -7.6237 O   0  0  0  0  0  0  0  0  0  0  0  0
   -7.9486    1.4817   -8.7749 O   0  0  0  0  0  0  0  0  0  0  0  0
   -9.7474    4.0521  -11.8589 O   0  0  0  0  0  0  0  0  0  0  0  0
   -4.9203    4.5089  -10.2585 O   0  0  0  0  0  0  0  0  0  0  0  0
   -6.4036    5.7032   -7.3052 O   0  0  0  0  0  0  0  0  0  0  0  0
   -6.7503    3.1103   -9.8985 N   0  0  0  0  0  0  0  0  0  0  0  0
   -9.4337    3.9798   -9.6030 N   0  0  0  0  0  0  0  0  0  0  0  0
   -2.2219    5.6343   -6.4074 N   0  0  0  0  0  0  0  0  0  0  0  0
   -4.6837    4.2115   -7.2391 N   0  0  0  0  0  0  0  0  0  0  0  0
   -1.3642   10.0098  -10.4385 N   0  0  0  0  0  0  0  0  0  0  0  0
   -8.5833    3.7892   -8.4280 C   0  0  2  0  0  0  0  0  0  0  0  0
   -7.4381    2.7849   -8.6749 C   0  0  2  0  0  0  0  0  0  0  0  0
   -2.8670    8.1247   -6.4467 C   0  0  2  0  0  0  0  0  0  0  0  0
   -1.9134    6.9766   -6.9806 C   0  0  1  0  0  0  0  0  0  0  0  0
   -9.5820    3.4078   -7.3363 C   0  0  0  0  0  0  0  0  0  0  0  0
   -7.5098    3.4662  -11.0990 C   0  0  2  0  0  0  0  0  0  0  0  0
   -5.2437    3.2613   -8.1547 C   0  0  1  0  0  0  0  0  0  0  0  0
   -4.5487    6.2895   -5.9020 C   0  0  2  0  0  0  0  0  0  0  0  0
   -4.3330    7.6812   -6.5338 C   0  0  0  0  0  0  0  0  0  0  0  0
  -10.8134    4.2044   -9.2358 C   0  0  0  0  0  0  0  0  0  0  0  0
  -10.8011    4.2503   -7.7107 C   0  0  0  0  0  0  0  0  0  0  0  0
   -9.0020    3.8438  -10.9013 C   0  0  0  0  0  0  0  0  0  0  0  0
   -5.5805    3.7785   -9.5565 C   0  0  0  0  0  0  0  0  0  0  0  0
   -3.2520    5.6731   -5.3601 C   0  0  0  0  0  0  0  0  0  0  0  0
   -1.8794    6.8579   -8.5559 C   0  0  0  0  0  0  0  0  0  0  0  0
   -2.6220    9.4281   -7.1761 C   0  0  0  0  0  0  0  0  0  0  0  0
   -7.3339    2.4234  -12.2281 C   0  0  0  0  0  0  0  0  0  0  0  0
   -5.2996    5.3783   -6.8762 C   0  0  0  0  0  0  0  0  0  0  0  0
   -2.1031    9.3554   -8.4722 C   0  0  0  0  0  0  0  0  0  0  0  0
   -1.7304    8.2023   -9.1907 C   0  0  0  0  0  0  0  0  0  0  0  0
   -4.2955    2.0670   -8.3563 C   0  0  0  0  0  0  0  0  0  0  0  0
   -1.0120    4.9601   -5.9439 C   0  0  0  0  0  0  0  0  0  0  0  0
   -1.8484   10.4772   -9.2359 C   0  0  0  0  0  0  0  0  0  0  0  0
   -2.8732   10.7065   -6.6658 C   0  0  0  0  0  0  0  0  0  0  0  0
   -1.2844    8.6305  -10.4202 C   0  0  0  0  0  0  0  0  0  0  0  0
   -7.7918    1.0091  -11.9307 C   0  0  0  0  0  0  0  0  0  0  0  0
   -2.0878   11.7608   -8.7425 C   0  0  0  0  0  0  0  0  0  0  0  0
   -2.6018   11.8480   -7.4363 C   0  0  0  0  0  0  0  0  0  0  0  0
   -9.1091    0.6137  -12.2019 C   0  0  0  0  0  0  0  0  0  0  0  0
   -6.9045    0.0644  -11.3903 C   0  0  0  0  0  0  0  0  0  0  0  0
   -9.5296   -0.6919  -11.9336 C   0  0  0  0  0  0  0  0  0  0  0  0
   -7.3352   -1.2317  -11.0942 C   0  0  0  0  0  0  0  0  0  0  0  0
   -8.6456   -1.6119  -11.3739 C   0  0  0  0  0  0  0  0  0  0  0  0
  1 12  1  0  0  0  0
  1 17  1  0  0  0  0
  3 22  2  0  0  0  0
  4 23  2  0  0  0  0
  5 28  2  0  0  0  0
  6 12  1  0  0  0  0
  6 16  1  0  0  0  0
  6 23  1  0  0  0  0
  7 20  1  0  0  0  0
  7 22  1  0  0  0  0
  8 24  1  0  0  0  0
  8 32  1  0  0  0  0
  9 28  1  0  0  0  0
 10 33  1  0  0  0  0
 10 35  1  0  0  0  0
 11  7  1  6  0  0  0
 11 12  1  0  0  0  0
 11 15  1  0  0  0  0
 12  2  1  6  0  0  0
 13 14  1  0  0  0  0
 13 19  1  6  0  0  0
 13 26  1  0  0  0  0
 14  8  1  6  0  0  0
 14 25  1  0  0  0  0
 15 21  1  0  0  0  0
 16 22  1  0  0  0  0
 16 27  1  6  0  0  0
 17 23  1  0  0  0  0
 17  9  1  6  0  0  0
 17 31  1  0  0  0  0
 18 19  1  0  0  0  0
 18 24  1  0  0  0  0
 18 28  1  6  0  0  0
 20 21  1  0  0  0  0
 25 30  1  0  0  0  0
 26 29  2  0  0  0  0
 26 34  1  0  0  0  0
 27 36  1  0  0  0  0
 29 30  1  0  0  0  0
 29 33  1  0  0  0  0
 30 35  2  0  0  0  0
 33 37  2  0  0  0  0
 34 38  2  0  0  0  0
 36 39  2  0  0  0  0
 36 40  1  0  0  0  0
 37 38  1  0  0  0  0
 39 41  1  0  0  0  0
 40 42  2  0  0  0  0
 41 43  2  0  0  0  0
 42 43  1  0  0  0  0
M  END
