1551
 OpenBabel10141418083D

 22 26  0  0  1  0  0  0  0  0999 V2000
    0.6866   -0.5755   -0.7152 O   0  0  0  0  0  0  0  0  0  0  0  0
    1.3795   -2.1067   -2.8819 O   0  0  0  0  0  0  0  0  0  0  0  0
    2.4409    1.5706   -1.2764 O   0  0  0  0  0  0  0  0  0  0  0  0
    2.6323   -3.9773    2.5709 N   0  0  0  0  0  0  0  0  0  0  0  0
    1.2710   -2.6386    0.4155 C   0  0  1  0  0  0  0  0  0  0  0  0
    1.6415   -4.1116    0.2520 C   0  0  2  0  0  0  0  0  0  0  0  0
    0.3293   -1.9968   -0.6210 C   0  0  2  0  0  0  0  0  0  0  0  0
    2.8920   -4.3527    1.1542 C   0  0  1  0  0  0  0  0  0  0  0  0
    0.8199   -2.3889    1.8803 C   0  0  0  0  0  0  0  0  0  0  0  0
    2.4499   -1.7700    0.1293 C   0  0  0  0  0  0  0  0  0  0  0  0
    1.7990   -4.5387   -1.2102 C   0  0  0  0  0  0  0  0  0  0  0  0
    0.3510   -2.6372   -2.0396 C   0  0  2  0  0  0  0  0  0  0  0  0
    4.1293   -3.5139    0.6910 C   0  0  0  0  0  0  0  0  0  0  0  0
    0.5412   -4.1534   -1.9988 C   0  0  0  0  0  0  0  0  0  0  0  0
    1.2771   -3.4996    2.8446 C   0  0  0  0  0  0  0  0  0  0  0  0
    3.7795   -2.0986    0.3077 C   0  0  0  0  0  0  0  0  0  0  0  0
    2.0387   -0.5695   -0.4220 C   0  0  0  0  0  0  0  0  0  0  0  0
    3.0246   -5.0349    3.4978 C   0  0  0  0  0  0  0  0  0  0  0  0
    4.7166   -1.1130    0.0002 C   0  0  0  0  0  0  0  0  0  0  0  0
    2.9460    0.4276   -0.7297 C   0  0  0  0  0  0  0  0  0  0  0  0
    4.3010    0.1469   -0.4928 C   0  0  0  0  0  0  0  0  0  0  0  0
    3.3646    2.6182   -1.5370 C   0  0  0  0  0  0  0  0  0  0  0  0
  1 17  1  0  0  0  0
  3 20  1  0  0  0  0
  3 22  1  0  0  0  0
  4 15  1  0  0  0  0
  4 18  1  0  0  0  0
  5  6  1  0  0  0  0
  5  7  1  0  0  0  0
  5  9  1  1  0  0  0
  5 10  1  0  0  0  0
  6  8  1  0  0  0  0
  6 11  1  6  0  0  0
  7  1  1  6  0  0  0
  7 12  1  0  0  0  0
  8  4  1  1  0  0  0
  8 13  1  0  0  0  0
  9 15  1  0  0  0  0
 10 16  2  0  0  0  0
 10 17  1  0  0  0  0
 11 14  1  0  0  0  0
 12 14  1  0  0  0  0
 12  2  1  6  0  0  0
 13 16  1  0  0  0  0
 16 19  1  0  0  0  0
 17 20  2  0  0  0  0
 19 21  2  0  0  0  0
 20 21  1  0  0  0  0
M  END
