19529
 OpenBabel10141417483D

 21 22  0  0  0  0  0  0  0  0999 V2000
    3.9527   -0.6466   -3.8724 Cl  0  0  0  0  0  0  0  0  0  0  0  0
    4.7959    2.1068   -3.3204 Cl  0  0  0  0  0  0  0  0  0  0  0  0
    8.2437   -1.4537    1.7506 O   0  0  0  0  0  0  0  0  0  0  0  0
   10.6711   -1.8683    2.5435 O   0  0  0  0  0  0  0  0  0  0  0  0
    2.1141    1.1330   -2.0382 O   0  0  0  0  0  0  0  0  0  0  0  0
    7.7852   -3.7442    1.6087 O   0  0  0  0  0  0  0  0  0  0  0  0
    3.4047    0.4415   -0.2786 N   0  0  0  0  0  0  0  0  0  0  0  0
    4.6031   -0.0721    0.2532 C   0  0  0  0  0  0  0  0  0  0  0  0
    5.3004    0.6532    1.2268 C   0  0  0  0  0  0  0  0  0  0  0  0
    5.0913   -1.3003   -0.1961 C   0  0  0  0  0  0  0  0  0  0  0  0
    6.9936   -1.0471    1.2489 C   0  0  0  0  0  0  0  0  0  0  0  0
    6.5077    0.1711    1.7204 C   0  0  0  0  0  0  0  0  0  0  0  0
    6.3050   -1.7721    0.2817 C   0  0  0  0  0  0  0  0  0  0  0  0
    2.4144    0.9188    0.6788 C   0  0  0  0  0  0  0  0  0  0  0  0
    3.2040    0.7004   -1.6420 C   0  0  0  0  0  0  0  0  0  0  0  0
    4.3909    0.5242   -2.6099 C   0  0  0  0  0  0  0  0  0  0  0  0
    9.9153   -2.9666    2.2579 C   0  0  0  0  0  0  0  0  0  0  0  0
    8.5444   -2.8078    1.8404 C   0  0  0  0  0  0  0  0  0  0  0  0
   10.6615   -4.1117    2.4418 C   0  0  0  0  0  0  0  0  0  0  0  0
   11.9382   -3.6898    2.8765 C   0  0  0  0  0  0  0  0  0  0  0  0
   11.8919   -2.3166    2.9258 C   0  0  0  0  0  0  0  0  0  0  0  0
  1 16  1  0  0  0  0
  2 16  1  0  0  0  0
  3 11  1  0  0  0  0
  3 18  1  0  0  0  0
  4 17  1  0  0  0  0
  4 21  1  0  0  0  0
  5 15  2  0  0  0  0
  6 18  2  0  0  0  0
  7  8  1  0  0  0  0
  7 14  1  0  0  0  0
  7 15  1  0  0  0  0
  8  9  2  0  0  0  0
  8 10  1  0  0  0  0
  9 12  1  0  0  0  0
 10 13  2  0  0  0  0
 11 12  2  0  0  0  0
 11 13  1  0  0  0  0
 15 16  1  0  0  0  0
 17 18  1  0  0  0  0
 17 19  2  0  0  0  0
 19 20  1  0  0  0  0
 20 21  2  0  0  0  0
M  END
