343
 OpenBabel10141417483D

 29 31  0  0  1  0  0  0  0  0999 V2000
    0.6666   -2.6881    0.7263 S   0  0  0  0  0  0  0  0  0  0  0  0
    2.0234   -0.8761   -2.6676 O   0  0  0  0  0  0  0  0  0  0  0  0
    2.4376    0.7712   -0.1823 O   0  0  0  0  0  0  0  0  0  0  0  0
   -3.2824   -4.0327   -4.5108 O   0  0  0  0  0  0  0  0  0  0  0  0
    2.8649   -2.9586   -3.1705 O   0  0  0  0  0  0  0  0  0  0  0  0
    0.1799    0.4121   -0.1184 N   0  0  0  0  0  0  0  0  0  0  0  0
   -0.0360    3.2874    2.4982 N   0  0  0  0  0  0  0  0  0  0  0  0
    1.0379   -2.5401   -1.0584 C   0  0  2  0  0  0  0  0  0  0  0  0
    1.8254   -1.2485   -1.2801 C   0  0  2  0  0  0  0  0  0  0  0  0
    1.4830    0.0185   -0.4461 C   0  0  0  0  0  0  0  0  0  0  0  0
    0.0386    1.8085    0.4056 C   0  0  0  0  0  0  0  0  0  0  0  0
   -0.9473   -0.4519    0.1442 C   0  0  0  0  0  0  0  0  0  0  0  0
   -0.1284   -2.8874   -1.9862 C   0  0  0  0  0  0  0  0  0  0  0  0
   -0.8364   -1.7506    0.6755 C   0  0  0  0  0  0  0  0  0  0  0  0
    0.0409    1.9071    1.9591 C   0  0  0  0  0  0  0  0  0  0  0  0
   -2.2507    0.0509   -0.0400 C   0  0  0  0  0  0  0  0  0  0  0  0
   -1.9761   -2.4540    1.1025 C   0  0  0  0  0  0  0  0  0  0  0  0
   -0.7532   -1.9870   -2.8657 C   0  0  0  0  0  0  0  0  0  0  0  0
   -0.5855   -4.2144   -1.9803 C   0  0  0  0  0  0  0  0  0  0  0  0
   -3.3850   -0.6772    0.3379 C   0  0  0  0  0  0  0  0  0  0  0  0
   -3.2460   -1.9189    0.9383 C   0  0  0  0  0  0  0  0  0  0  0  0
   -1.7954   -2.4078   -3.7049 C   0  0  0  0  0  0  0  0  0  0  0  0
   -1.6385   -4.6243   -2.7948 C   0  0  0  0  0  0  0  0  0  0  0  0
   -1.3082    3.9444    2.1922 C   0  0  0  0  0  0  0  0  0  0  0  0
    0.1487    3.2669    3.9569 C   0  0  0  0  0  0  0  0  0  0  0  0
   -2.2492   -3.7262   -3.6656 C   0  0  0  0  0  0  0  0  0  0  0  0
    2.6413   -1.7986   -3.4620 C   0  0  0  0  0  0  0  0  0  0  0  0
    3.0367   -1.1850   -4.7707 C   0  0  0  0  0  0  0  0  0  0  0  0
   -3.7267   -5.3864   -4.4651 C   0  0  0  0  0  0  0  0  0  0  0  0
  1  8  1  0  0  0  0
  1 14  1  0  0  0  0
  2 27  1  0  0  0  0
  3 10  2  0  0  0  0
  4 26  1  0  0  0  0
  4 29  1  0  0  0  0
  5 27  2  0  0  0  0
  6 10  1  0  0  0  0
  6 11  1  0  0  0  0
  6 12  1  0  0  0  0
  7 15  1  0  0  0  0
  7 24  1  0  0  0  0
  7 25  1  0  0  0  0
  8  9  1  0  0  0  0
  8 13  1  6  0  0  0
  9  2  1  6  0  0  0
  9 10  1  0  0  0  0
 11 15  1  0  0  0  0
 12 14  1  0  0  0  0
 12 16  2  0  0  0  0
 13 18  2  0  0  0  0
 13 19  1  0  0  0  0
 14 17  2  0  0  0  0
 16 20  1  0  0  0  0
 17 21  1  0  0  0  0
 18 22  1  0  0  0  0
 19 23  2  0  0  0  0
 20 21  2  0  0  0  0
 22 26  2  0  0  0  0
 23 26  1  0  0  0  0
 27 28  1  0  0  0  0
M  END
