
 OpenBabel10141417503D

 33 35  0  0  0  0  0  0  0  0999 V2000
   -3.1615    0.1424    1.1168 C   0  0  0  0  0  0  0  0  0  0  0  0
   -3.3576    0.8626    2.6682 C   0  0  0  0  0  0  0  0  0  0  0  0
   -1.5951    0.1372    0.2299 C   0  0  0  0  0  0  0  0  0  0  0  0
   -4.4353   -0.2230    0.8169 N   0  5  0  0  0  0  0  0  0  0  0  0
   -2.0193    1.7397    3.4450 N   0  0  0  0  0  0  0  0  0  0  0  0
   -4.6708    0.7890    2.9353 N   0  0  0  0  0  0  0  0  0  0  0  0
   -0.3019    1.0935    1.0596 N   0  0  0  0  0  0  0  0  0  0  0  0
   -1.2720   -0.4343   -0.8237 O   0  0  0  0  0  0  0  0  0  0  0  0
   -5.2568    0.1862    1.8459 C   0  0  0  0  0  0  0  0  0  0  0  0
   -0.4964    2.1758    2.5353 C   0  0  0  0  0  0  0  0  0  0  0  0
   -2.1611    2.3720    4.7353 C   0  0  0  0  0  0  0  0  0  0  0  0
    0.9402    1.1777    0.2367 C   0  0  0  0  0  0  0  0  0  0  0  0
   -6.9590   -0.0750    1.7835 Cl  0  0  0  0  0  0  0  0  0  0  0  0
    0.1494    3.2021    2.7880 O   0  0  0  0  0  0  0  0  0  0  0  0
   -1.3668    0.2245    2.4099 C   0  0  0  0  0  0  0  0  0  0  0  0
   -2.1364   -1.0053    3.5271 C   0  0  0  0  0  0  0  0  0  0  0  0
   -2.0934    1.9452    1.3660 C   0  0  0  0  0  0  0  0  0  0  0  0
    0.0266    0.2336    3.4276 O   0  0  0  0  0  0  0  0  0  0  0  0
   -3.0947   -1.9687    3.1001 C   0  0  0  0  0  0  0  0  0  0  0  0
   -1.7636   -1.1175    4.8906 C   0  0  0  0  0  0  0  0  0  0  0  0
   -3.0218    3.1007    1.8291 C   0  0  0  0  0  0  0  0  0  0  0  0
   -1.6112    2.5954    0.0297 C   0  0  0  0  0  0  0  0  0  0  0  0
    1.3546    0.2425    2.8775 C   0  0  0  0  0  0  0  0  0  0  0  0
   -3.7147   -2.8841    3.9698 C   0  0  0  0  0  0  0  0  0  0  0  0
   -2.3710   -2.0580    5.7581 C   0  0  0  0  0  0  0  0  0  0  0  0
   -3.2065    4.4027    1.2836 C   0  0  0  0  0  0  0  0  0  0  0  0
   -1.6922    3.9329   -0.4361 C   0  0  0  0  0  0  0  0  0  0  0  0
   -3.3546   -2.9316    5.3027 C   0  0  0  0  0  0  0  0  0  0  0  0
   -2.4855    4.8459    0.2034 C   0  0  0  0  0  0  0  0  0  0  0  0
    2.5196    0.2207    3.8649 C   0  0  0  0  0  0  0  0  0  0  0  0
    2.4847    1.3891    4.8476 N   0  3  0  0  0  0  0  0  0  0  0  0
    3.5905    1.2793    5.8337 C   0  0  0  0  0  0  0  0  0  0  0  0
    2.5590    2.7781    4.2820 C   0  0  0  0  0  0  0  0  0  0  0  0
  1  2  2  0  0  0  0
  1  3  1  0  0  0  0
  1  4  1  0  0  0  0
  2  5  1  0  0  0  0
  2  6  1  0  0  0  0
  3  7  1  0  0  0  0
  3  8  2  0  0  0  0
  4  9  1  0  0  0  0
  5 10  1  0  0  0  0
  5 11  1  0  0  0  0
  6  9  2  0  0  0  0
  7 12  1  0  0  0  0
  7 10  1  0  0  0  0
  9 13  1  0  0  0  0
 10 14  2  0  0  0  0
 15 16  1  0  0  0  0
 15 17  1  0  0  0  0
 15 18  1  0  0  0  0
 16 19  1  0  0  0  0
 16 20  2  0  0  0  0
 17 21  2  0  0  0  0
 17 22  1  0  0  0  0
 18 23  1  0  0  0  0
 19 24  2  0  0  0  0
 20 25  1  0  0  0  0
 21 26  1  0  0  0  0
 22 27  2  0  0  0  0
 23 30  1  0  0  0  0
 24 28  1  0  0  0  0
 25 28  2  0  0  0  0
 26 29  2  0  0  0  0
 27 29  1  0  0  0  0
 30 31  1  0  0  0  0
 31 32  1  0  0  0  0
 31 33  1  0  0  0  0
M  CHG  2   4  -1  31   1
M  END
