
 OpenBabel10141417513D

 22 24  0  0  0  0  0  0  0  0999 V2000
    0.7967   -0.0697   -0.4689 C   0  0  0  0  0  0  0  0  0  0  0  0
    2.9367   -0.0537   -1.8363 C   0  0  0  0  0  0  0  0  0  0  0  0
    5.0300    2.5696    6.0072 C   0  0  0  0  0  0  0  0  0  0  0  0
    6.6497    1.1809    7.0836 C   0  0  0  0  0  0  0  0  0  0  0  0
    2.7336    3.7403    0.2390 C   0  0  0  0  0  0  0  0  0  0  0  0
    2.8498   -3.7479    0.4542 C   0  0  0  0  0  0  0  0  0  0  0  0
    3.4869    3.7550    1.3935 C   0  0  0  0  0  0  0  0  0  0  0  0
    3.5691   -3.6727    1.6292 C   0  0  0  0  0  0  0  0  0  0  0  0
    4.0337    0.1309    4.5116 C   0  0  0  0  0  0  0  0  0  0  0  0
    2.3728    2.5172   -0.3158 C   0  0  0  0  0  0  0  0  0  0  0  0
    2.4805   -2.5719   -0.1885 C   0  0  0  0  0  0  0  0  0  0  0  0
    3.8791    2.5482    1.9832 C   0  0  0  0  0  0  0  0  0  0  0  0
    3.9338   -2.4235    2.1457 C   0  0  0  0  0  0  0  0  0  0  0  0
    4.9152    0.1516    5.7696 C   0  0  0  0  0  0  0  0  0  0  0  0
    4.8478    0.1129    3.2112 C   0  0  0  0  0  0  0  0  0  0  0  0
    2.7673    1.2838    0.2684 C   0  0  0  0  0  0  0  0  0  0  0  0
    2.8221   -1.2961    0.3335 C   0  0  0  0  0  0  0  0  0  0  0  0
    3.5450    1.2870    1.4413 C   0  0  0  0  0  0  0  0  0  0  0  0
    3.5832   -1.2080    1.5151 C   0  0  0  0  0  0  0  0  0  0  0  0
    2.3470   -0.0332   -0.4030 C   0  0  0  0  0  0  0  0  0  0  0  0
    5.7975    1.3260    5.8965 N   0  0  0  0  0  0  0  0  0  0  0  0
    3.9576    0.0616    2.0242 N   0  0  0  0  0  0  0  0  0  0  0  0
  7  5  2  0  0  0  0
  8  6  2  0  0  0  0
 10  5  1  0  0  0  0
 11  6  1  0  0  0  0
 12  7  1  0  0  0  0
 13  8  1  0  0  0  0
 14  9  1  0  0  0  0
 15  9  1  0  0  0  0
 16 10  2  0  0  0  0
 17 11  2  0  0  0  0
 18 12  2  0  0  0  0
 18 16  1  0  0  0  0
 19 13  2  0  0  0  0
 19 17  1  0  0  0  0
 20  1  1  0  0  0  0
 20  2  1  0  0  0  0
 20 16  1  0  0  0  0
 20 17  1  0  0  0  0
 21  3  1  0  0  0  0
 21  4  1  0  0  0  0
 21 14  1  0  0  0  0
 22 15  1  0  0  0  0
 22 18  1  0  0  0  0
 22 19  1  0  0  0  0
M  END
