
 OpenBabel10141417533D

  4  3  0  0  0  0  0  0  0  0999 V2000
    0.9618    0.0806    0.2084 S   0  0  0  0  0  0  0  0  0  0  0  0
    0.5487    1.4977   -0.0565 O   0  0  0  0  0  0  0  0  0  0  0  0
    0.5647   -0.8866   -1.2680 C   0  0  0  0  0  0  0  0  0  0  0  0
    2.7578   -0.0084    0.0102 C   0  0  0  0  0  0  0  0  0  0  0  0
  1  2  2  0  0  0  0
  1  3  1  0  0  0  0
  1  4  1  0  0  0  0
M  END
