1160
 OpenBabel10141417483D

 33 32  0  0  1  0  0  0  0  0999 V2000
    2.4201    0.8659    0.6539 O   0  0  0  0  0  0  0  0  0  0  0  0
    3.7266    2.3485    3.1531 O   0  0  0  0  0  0  0  0  0  0  0  0
    2.8039   -3.4706    6.7287 O   0  0  0  0  0  0  0  0  0  0  0  0
   -5.9815    2.0197    1.4075 O   0  0  0  0  0  0  0  0  0  0  0  0
   -4.3424    1.0260    2.5344 O   0  0  0  0  0  0  0  0  0  0  0  0
    3.8539    0.3026   -4.4312 O   0  0  0  0  0  0  0  0  0  0  0  0
    4.4783   -2.3345   -4.9165 O   0  0  0  0  0  0  0  0  0  0  0  0
    7.5984    0.5273   -2.3181 O   0  0  0  0  0  0  0  0  0  0  0  0
    5.2264   -1.2100   -2.3536 N   0  0  0  0  0  0  0  0  0  0  0  0
    2.1079   -0.3355    2.7873 C   0  0  2  0  0  0  0  0  0  0  0  0
    2.9651    0.1957    3.9900 C   0  0  2  0  0  0  0  0  0  0  0  0
    2.9645   -0.1065    1.5278 C   0  0  2  0  0  0  0  0  0  0  0  0
    4.1167    0.9892    3.3432 C   0  0  1  0  0  0  0  0  0  0  0  0
    4.3507    0.3377    1.9909 C   0  0  0  0  0  0  0  0  0  0  0  0
    0.6432    0.1796    2.8026 C   0  0  0  0  0  0  0  0  0  0  0  0
    3.5366   -0.8387    4.9506 C   0  0  0  0  0  0  0  0  0  0  0  0
   -0.2159   -0.3582    1.6763 C   0  0  0  0  0  0  0  0  0  0  0  0
    3.3557   -2.1631    4.8553 C   0  0  0  0  0  0  0  0  0  0  0  0
    3.8358   -3.2306    5.7799 C   0  0  2  0  0  0  0  0  0  0  0  0
   -1.1757    0.2530    0.9526 C   0  0  0  0  0  0  0  0  0  0  0  0
    4.1462   -4.5405    5.0329 C   0  0  0  0  0  0  0  0  0  0  0  0
   -1.6663    1.6712    1.0702 C   0  0  0  0  0  0  0  0  0  0  0  0
    2.9536   -5.1657    4.2728 C   0  0  0  0  0  0  0  0  0  0  0  0
   -2.7872    2.0881    0.0848 C   0  0  0  0  0  0  0  0  0  0  0  0
    3.3077   -6.4728    3.5545 C   0  0  0  0  0  0  0  0  0  0  0  0
    3.7416   -7.5795    4.5129 C   0  0  0  0  0  0  0  0  0  0  0  0
   -4.1062    1.3128    0.1252 C   0  0  0  0  0  0  0  0  0  0  0  0
    4.0859   -8.8694    3.7884 C   0  0  0  0  0  0  0  0  0  0  0  0
   -4.7870    1.4167    1.4507 C   0  0  0  0  0  0  0  0  0  0  0  0
    5.9163   -0.8007   -3.6053 C   0  0  0  0  0  0  0  0  0  0  0  0
    5.2434    0.4782   -4.1853 C   0  0  0  0  0  0  0  0  0  0  0  0
    5.8284   -1.9724   -4.6271 C   0  0  0  0  0  0  0  0  0  0  0  0
    7.4087   -0.5107   -3.2844 C   0  0  0  0  0  0  0  0  0  0  0  0
  4 29  1  0  0  0  0
  5 29  2  0  0  0  0
  6 31  1  0  0  0  0
  7 32  1  0  0  0  0
  8 33  1  0  0  0  0
  9 30  1  0  0  0  0
 10 11  1  0  0  0  0
 10 12  1  0  0  0  0
 10 15  1  6  0  0  0
 11 13  1  0  0  0  0
 11 16  1  6  0  0  0
 12  1  1  6  0  0  0
 12 14  1  0  0  0  0
 13 14  1  0  0  0  0
 13  2  1  6  0  0  0
 15 17  1  0  0  0  0
 16 18  2  0  0  0  0
 17 20  2  0  0  0  0
 18 19  1  0  0  0  0
 19  3  1  1  0  0  0
 19 21  1  0  0  0  0
 20 22  1  0  0  0  0
 21 23  1  0  0  0  0
 22 24  1  0  0  0  0
 23 25  1  0  0  0  0
 24 27  1  0  0  0  0
 25 26  1  0  0  0  0
 26 28  1  0  0  0  0
 27 29  1  0  0  0  0
 30 31  1  0  0  0  0
 30 32  1  0  0  0  0
 30 33  1  0  0  0  0
M  END
