
 OpenBabel10141417493D

 25 25  0  0  1  0  0  0  0  0999 V2000
    3.4803    2.8816   -3.4617 O   0  0  0  0  0  0  0  0  0  0  0  0
    4.5084    4.4048    0.2170 O   0  0  0  0  0  0  0  0  0  0  0  0
   -1.8877    2.7739    0.0062 O   0  0  0  0  0  0  0  0  0  0  0  0
    6.7008    2.1436    3.4390 O   0  0  0  0  0  0  0  0  0  0  0  0
    8.6844    1.1296    3.3600 O   0  0  0  0  0  0  0  0  0  0  0  0
    2.4357    2.0237   -1.4345 C   0  0  2  0  0  0  0  0  0  0  0  0
    3.6149    2.2557   -0.4520 C   0  0  2  0  0  0  0  0  0  0  0  0
    2.5267    3.1895   -2.4428 C   0  0  1  0  0  0  0  0  0  0  0  0
    2.9945    4.3935   -1.6472 C   0  0  0  0  0  0  0  0  0  0  0  0
    3.7984    3.7567   -0.5461 C   0  0  0  0  0  0  0  0  0  0  0  0
    4.9436    1.5485   -0.7740 C   0  0  0  0  0  0  0  0  0  0  0  0
    1.1054    1.9269   -0.6932 C   0  0  0  0  0  0  0  0  0  0  0  0
   -0.0937    1.8664   -1.3006 C   0  0  0  0  0  0  0  0  0  0  0  0
    4.8168    0.0449   -0.7799 C   0  0  0  0  0  0  0  0  0  0  0  0
   -1.3785    1.5750   -0.5606 C   0  0  2  0  0  0  0  0  0  0  0  0
   -2.4829    0.8129   -1.3246 C   0  0  0  0  0  0  0  0  0  0  0  0
   -3.3217    1.5806   -2.3674 C   0  0  0  0  0  0  0  0  0  0  0  0
    5.3965   -0.8499    0.0381 C   0  0  0  0  0  0  0  0  0  0  0  0
   -2.4761    2.1053   -3.5283 C   0  0  0  0  0  0  0  0  0  0  0  0
    6.3837   -0.5908    1.1373 C   0  0  0  0  0  0  0  0  0  0  0  0
   -3.2210    2.8397   -4.6438 C   0  0  0  0  0  0  0  0  0  0  0  0
    5.6971   -0.4562    2.4985 C   0  0  0  0  0  0  0  0  0  0  0  0
    6.6934   -0.2276    3.6295 C   0  0  0  0  0  0  0  0  0  0  0  0
   -3.8498    4.1400   -4.1667 C   0  0  0  0  0  0  0  0  0  0  0  0
    7.4872    1.0470    3.4609 C   0  0  0  0  0  0  0  0  0  0  0  0
  2 10  2  0  0  0  0
  4 25  1  0  0  0  0
  5 25  2  0  0  0  0
  6  7  1  0  0  0  0
  6  8  1  0  0  0  0
  6 12  1  1  0  0  0
  7 10  1  0  0  0  0
  7 11  1  6  0  0  0
  8  9  1  0  0  0  0
  8  1  1  6  0  0  0
  9 10  1  0  0  0  0
 11 14  1  0  0  0  0
 12 13  2  0  0  0  0
 13 15  1  0  0  0  0
 14 18  2  0  0  0  0
 15  3  1  6  0  0  0
 15 16  1  0  0  0  0
 16 17  1  0  0  0  0
 17 19  1  0  0  0  0
 18 20  1  0  0  0  0
 19 21  1  0  0  0  0
 20 22  1  0  0  0  0
 21 24  1  0  0  0  0
 22 23  1  0  0  0  0
 23 25  1  0  0  0  0
M  END
