1231
 OpenBabel10141417513D

 23 25  0  0  0  0  0  0  0  0999 V2000
   -0.3008   -1.8526    0.1821 O   0  0  0  0  0  0  0  0  0  0  0  0
    2.9090   -0.1825   -3.7333 N   0  0  0  0  0  0  0  0  0  0  0  0
    3.4710   -1.4515   -4.2215 C   0  0  0  0  0  0  0  0  0  0  0  0
    3.6740    0.9435   -4.2979 C   0  0  0  0  0  0  0  0  0  0  0  0
    2.8190   -0.0893   -2.2672 C   0  0  0  0  0  0  0  0  0  0  0  0
    4.9527   -1.6314   -3.8862 C   0  0  0  0  0  0  0  0  0  0  0  0
    5.1763    0.8837   -3.9994 C   0  0  0  0  0  0  0  0  0  0  0  0
    5.7803   -0.4586   -4.4046 C   0  0  0  0  0  0  0  0  0  0  0  0
    1.9350   -1.1701   -1.6260 C   0  0  0  0  0  0  0  0  0  0  0  0
    1.9075   -0.9937   -0.1003 C   0  0  0  0  0  0  0  0  0  0  0  0
    1.0409   -2.0303    0.6695 C   0  0  0  0  0  0  0  0  0  0  0  0
    0.9851   -1.7594    2.1865 C   0  0  0  0  0  0  0  0  0  0  0  0
    1.5203   -3.4615    0.3652 C   0  0  0  0  0  0  0  0  0  0  0  0
    0.1477   -2.5436    3.0020 C   0  0  0  0  0  0  0  0  0  0  0  0
    0.7266   -4.3668   -0.3618 C   0  0  0  0  0  0  0  0  0  0  0  0
    1.7325   -0.7417    2.8110 C   0  0  0  0  0  0  0  0  0  0  0  0
    2.7931   -3.8942    0.7841 C   0  0  0  0  0  0  0  0  0  0  0  0
    0.0637   -2.3239    4.3798 C   0  0  0  0  0  0  0  0  0  0  0  0
    1.1883   -5.6503   -0.6679 C   0  0  0  0  0  0  0  0  0  0  0  0
    1.6445   -0.5198    4.1882 C   0  0  0  0  0  0  0  0  0  0  0  0
    3.2546   -5.1776    0.4760 C   0  0  0  0  0  0  0  0  0  0  0  0
    0.8127   -1.3091    4.9716 C   0  0  0  0  0  0  0  0  0  0  0  0
    2.4543   -6.0535   -0.2509 C   0  0  0  0  0  0  0  0  0  0  0  0
  1 11  1  0  0  0  0
  2  3  1  0  0  0  0
  2  4  1  0  0  0  0
  2  5  1  0  0  0  0
  3  6  1  0  0  0  0
  4  7  1  0  0  0  0
  5  9  1  0  0  0  0
  6  8  1  0  0  0  0
  7  8  1  0  0  0  0
  9 10  1  0  0  0  0
 10 11  1  0  0  0  0
 11 12  1  0  0  0  0
 11 13  1  0  0  0  0
 12 14  2  0  0  0  0
 12 16  1  0  0  0  0
 13 15  2  0  0  0  0
 13 17  1  0  0  0  0
 14 18  1  0  0  0  0
 15 19  1  0  0  0  0
 16 20  2  0  0  0  0
 17 21  2  0  0  0  0
 18 22  2  0  0  0  0
 19 23  2  0  0  0  0
 20 22  1  0  0  0  0
 21 23  1  0  0  0  0
M  END
