1081
 OpenBabel10141417493D

 34 37  0  0  0  0  0  0  0  0999 V2000
    1.6786   -0.0978   -0.5804 O   0  0  0  0  0  0  0  0  0  0  0  0
    1.7553    1.0027   -2.5795 O   0  0  0  0  0  0  0  0  0  0  0  0
   -1.4920    0.5973    1.3342 N   0  0  0  0  0  0  0  0  0  0  0  0
   -6.2639   -0.1137    2.8209 N   0  0  0  0  0  0  0  0  0  0  0  0
   -0.4297    0.5542   -1.5010 C   0  0  0  0  0  0  0  0  0  0  0  0
   -0.8161    1.8493   -0.7266 C   0  0  0  0  0  0  0  0  0  0  0  0
   -0.9051   -0.7214   -0.7203 C   0  0  0  0  0  0  0  0  0  0  0  0
   -0.7373    1.7332    0.7959 C   0  0  0  0  0  0  0  0  0  0  0  0
   -0.8809   -0.6307    0.8074 C   0  0  0  0  0  0  0  0  0  0  0  0
   -2.9616    0.6433    1.1145 C   0  0  0  0  0  0  0  0  0  0  0  0
   -1.1034    0.5190   -2.9131 C   0  0  0  0  0  0  0  0  0  0  0  0
    1.1150    0.5291   -1.6508 C   0  0  0  0  0  0  0  0  0  0  0  0
   -3.6474    1.8837    1.7484 C   0  0  0  0  0  0  0  0  0  0  0  0
   -5.2176    2.0083    1.6185 C   0  0  0  0  0  0  0  0  0  0  0  0
   -1.3718   -0.7098   -3.5532 C   0  0  0  0  0  0  0  0  0  0  0  0
   -1.5491    1.6840   -3.5639 C   0  0  0  0  0  0  0  0  0  0  0  0
   -5.7627    3.2970    2.3507 C   0  0  0  0  0  0  0  0  0  0  0  0
   -5.6051    2.0333    0.1099 C   0  0  0  0  0  0  0  0  0  0  0  0
   -2.1746   -0.7819   -4.6950 C   0  0  0  0  0  0  0  0  0  0  0  0
   -2.3455    1.6124   -4.7144 C   0  0  0  0  0  0  0  0  0  0  0  0
   -5.8160    0.8143    2.3210 C   0  0  0  0  0  0  0  0  0  0  0  0
   -2.6848    0.3789   -5.2607 C   0  0  0  0  0  0  0  0  0  0  0  0
    3.0176   -0.5956   -0.7015 C   0  0  0  0  0  0  0  0  0  0  0  0
   -7.1561    3.5405    2.4172 C   0  0  0  0  0  0  0  0  0  0  0  0
   -5.8985    0.8452   -0.5946 C   0  0  0  0  0  0  0  0  0  0  0  0
   -4.9223    4.2741    2.9231 C   0  0  0  0  0  0  0  0  0  0  0  0
   -5.6410    3.2383   -0.6219 C   0  0  0  0  0  0  0  0  0  0  0  0
    2.9526   -1.9953   -1.2879 C   0  0  0  0  0  0  0  0  0  0  0  0
   -7.6729    4.7002    3.0107 C   0  0  0  0  0  0  0  0  0  0  0  0
   -6.2001    0.8603   -1.9592 C   0  0  0  0  0  0  0  0  0  0  0  0
   -5.4442    5.4285    3.5260 C   0  0  0  0  0  0  0  0  0  0  0  0
   -5.9385    3.2496   -1.9899 C   0  0  0  0  0  0  0  0  0  0  0  0
   -6.8171    5.6445    3.5661 C   0  0  0  0  0  0  0  0  0  0  0  0
   -6.2090    2.0606   -2.6594 C   0  0  0  0  0  0  0  0  0  0  0  0
  1 12  1  0  0  0  0
  1 23  1  0  0  0  0
  2 12  2  0  0  0  0
  3  8  1  0  0  0  0
  3  9  1  0  0  0  0
  3 10  1  0  0  0  0
  4 21  3  0  0  0  0
  5  6  1  0  0  0  0
  5  7  1  0  0  0  0
  5 11  1  0  0  0  0
  5 12  1  0  0  0  0
  6  8  1  0  0  0  0
  7  9  1  0  0  0  0
 10 13  1  0  0  0  0
 11 15  2  0  0  0  0
 11 16  1  0  0  0  0
 13 14  1  0  0  0  0
 14 17  1  0  0  0  0
 14 18  1  0  0  0  0
 14 21  1  0  0  0  0
 15 19  1  0  0  0  0
 16 20  2  0  0  0  0
 17 24  2  0  0  0  0
 17 26  1  0  0  0  0
 18 25  2  0  0  0  0
 18 27  1  0  0  0  0
 19 22  2  0  0  0  0
 20 22  1  0  0  0  0
 23 28  1  0  0  0  0
 24 29  1  0  0  0  0
 25 30  1  0  0  0  0
 26 31  2  0  0  0  0
 27 32  2  0  0  0  0
 29 33  2  0  0  0  0
 30 34  2  0  0  0  0
 31 33  1  0  0  0  0
 32 34  1  0  0  0  0
M  END
