729
 OpenBabel10141417483D

 27 28  0  0  0  0  0  0  0  0999 V2000
    1.6567    1.5271   -3.0935 S   0  0  0  0  0  0  0  0  0  0  0  0
    1.8247    2.8262   -2.1242 O   0  0  0  0  0  0  0  0  0  0  0  0
    0.3501    0.9858   -2.7259 O   0  5  0  0  0  0  0  0  0  0  0  0
    2.7654    0.6691   -2.6782 O   0  0  0  0  0  0  0  0  0  0  0  0
    1.7544    2.0569   -4.4426 O   0  0  0  0  0  0  0  0  0  0  0  0
    1.9102   -1.5326    0.6825 N   0  3  0  0  0  0  0  0  0  0  0  0
    0.6426   -2.3498    0.9357 C   0  0  0  0  0  0  0  0  0  0  0  0
    1.7507   -0.0990    1.2276 C   0  0  0  0  0  0  0  0  0  0  0  0
   -0.6215   -1.6481    0.4377 C   0  0  0  0  0  0  0  0  0  0  0  0
    0.4540    0.5863    0.7779 C   0  0  0  0  0  0  0  0  0  0  0  0
   -0.7741   -0.2665    1.0541 C   0  0  0  0  0  0  0  0  0  0  0  0
    2.2340   -1.4846   -0.8183 C   0  0  0  0  0  0  0  0  0  0  0  0
    3.0876   -2.1950    1.3775 C   0  0  0  0  0  0  0  0  0  0  0  0
   -1.8750    0.1546    1.7302 C   0  0  0  0  0  0  0  0  0  0  0  0
   -1.9808    1.5579    2.1960 C   0  0  0  0  0  0  0  0  0  0  0  0
   -2.9913   -0.7932    1.9608 C   0  0  0  0  0  0  0  0  0  0  0  0
   -2.5499    2.5303    1.3618 C   0  0  0  0  0  0  0  0  0  0  0  0
   -4.0282   -0.9144    1.0272 C   0  0  0  0  0  0  0  0  0  0  0  0
   -1.5394    1.9245    3.4731 C   0  0  0  0  0  0  0  0  0  0  0  0
   -2.9972   -1.6023    3.1051 C   0  0  0  0  0  0  0  0  0  0  0  0
   -2.6869    3.8476    1.8041 C   0  0  0  0  0  0  0  0  0  0  0  0
   -5.0515   -1.8421    1.2311 C   0  0  0  0  0  0  0  0  0  0  0  0
   -1.6748    3.2441    3.9119 C   0  0  0  0  0  0  0  0  0  0  0  0
   -4.0205   -2.5304    3.3050 C   0  0  0  0  0  0  0  0  0  0  0  0
   -2.2524    4.2029    3.0799 C   0  0  0  0  0  0  0  0  0  0  0  0
   -5.0450   -2.6514    2.3669 C   0  0  0  0  0  0  0  0  0  0  0  0
    0.8846    3.8688   -2.2667 C   0  0  0  0  0  0  0  0  0  0  0  0
  1  2  1  0  0  0  0
  1  3  1  0  0  0  0
  1  4  2  0  0  0  0
  1  5  2  0  0  0  0
  2 27  1  0  0  0  0
  6  7  1  0  0  0  0
  6  8  1  0  0  0  0
  6 12  1  0  0  0  0
  6 13  1  0  0  0  0
  7  9  1  0  0  0  0
  8 10  1  0  0  0  0
  9 11  1  0  0  0  0
 10 11  1  0  0  0  0
 11 14  2  0  0  0  0
 14 15  1  0  0  0  0
 14 16  1  0  0  0  0
 15 17  2  0  0  0  0
 15 19  1  0  0  0  0
 16 18  2  0  0  0  0
 16 20  1  0  0  0  0
 17 21  1  0  0  0  0
 18 22  1  0  0  0  0
 19 23  2  0  0  0  0
 20 24  2  0  0  0  0
 21 25  2  0  0  0  0
 22 26  2  0  0  0  0
 23 25  1  0  0  0  0
 24 26  1  0  0  0  0
M  CHG  2   3  -1   6   1
M  END
