1075
 OpenBabel10141417523D

 19 20  0  0  0  0  0  0  0  0999 V2000
   -1.5609    1.1635    3.3209 O   0  0  0  0  0  0  0  0  0  0  0  0
   -4.3420    1.4779    5.9189 N   0  0  0  0  0  0  0  0  0  0  0  0
   -1.1296    1.8407    2.1081 C   0  0  0  0  0  0  0  0  0  0  0  0
   -0.0923    2.9321    2.4218 C   0  0  0  0  0  0  0  0  0  0  0  0
   -0.5940    0.8121    1.0993 C   0  0  0  0  0  0  0  0  0  0  0  0
   -2.7105    1.7592    3.9516 C   0  0  0  0  0  0  0  0  0  0  0  0
   -3.1179    0.9830    5.2397 C   0  0  0  0  0  0  0  0  0  0  0  0
    0.7897    2.8040    3.5160 C   0  0  0  0  0  0  0  0  0  0  0  0
   -0.6438    1.0453   -0.2861 C   0  0  0  0  0  0  0  0  0  0  0  0
    0.0061    4.0948    1.6443 C   0  0  0  0  0  0  0  0  0  0  0  0
    0.0223   -0.3729    1.5418 C   0  0  0  0  0  0  0  0  0  0  0  0
   -4.7204    0.6118    7.0423 C   0  0  0  0  0  0  0  0  0  0  0  0
   -4.2231    2.8638    6.3717 C   0  0  0  0  0  0  0  0  0  0  0  0
    1.6345    3.8596    3.8779 C   0  0  0  0  0  0  0  0  0  0  0  0
   -0.0314    0.1655   -1.1926 C   0  0  0  0  0  0  0  0  0  0  0  0
    0.8987    5.1236    1.9704 C   0  0  0  0  0  0  0  0  0  0  0  0
    0.6064   -1.2652    0.6316 C   0  0  0  0  0  0  0  0  0  0  0  0
    1.6853    5.0199    3.1235 C   0  0  0  0  0  0  0  0  0  0  0  0
    0.6106   -0.9812   -0.7279 C   0  0  0  0  0  0  0  0  0  0  0  0
  1  3  1  0  0  0  0
  1  6  1  0  0  0  0
  2  7  1  0  0  0  0
  2 12  1  0  0  0  0
  2 13  1  0  0  0  0
  3  4  1  0  0  0  0
  3  5  1  0  0  0  0
  4  8  2  0  0  0  0
  4 10  1  0  0  0  0
  5  9  2  0  0  0  0
  5 11  1  0  0  0  0
  6  7  1  0  0  0  0
  8 14  1  0  0  0  0
  9 15  1  0  0  0  0
 10 16  2  0  0  0  0
 11 17  2  0  0  0  0
 14 18  2  0  0  0  0
 15 19  2  0  0  0  0
 16 18  1  0  0  0  0
 17 19  1  0  0  0  0
M  END
