1146
 OpenBabel10141417483D

 21 23  0  0  0  0  0  0  0  0999 V2000
    2.7343    2.2704   -1.6403 O   0  0  0  0  0  0  0  0  0  0  0  0
   -0.6655    2.6804   -2.4670 N   0  0  0  0  0  0  0  0  0  0  0  0
    2.1094    1.7804   -2.8383 C   0  0  0  0  0  0  0  0  0  0  0  0
    1.5480    2.9906   -3.5869 C   0  0  0  0  0  0  0  0  0  0  0  0
    0.9566    0.8135   -2.5691 C   0  0  0  0  0  0  0  0  0  0  0  0
    0.4020    3.6382   -2.8057 C   0  0  0  0  0  0  0  0  0  0  0  0
   -0.1411    1.5020   -1.7624 C   0  0  0  0  0  0  0  0  0  0  0  0
    3.4414    1.2994   -0.8502 C   0  0  0  0  0  0  0  0  0  0  0  0
   -1.6728    3.3438   -1.6334 C   0  0  0  0  0  0  0  0  0  0  0  0
    4.6291    0.7421   -1.6176 C   0  0  0  0  0  0  0  0  0  0  0  0
    3.8601    1.9226    0.4810 C   0  0  0  0  0  0  0  0  0  0  0  0
    5.6559    1.5870   -2.0735 C   0  0  0  0  0  0  0  0  0  0  0  0
    4.0200    1.1085    1.6166 C   0  0  0  0  0  0  0  0  0  0  0  0
    4.6958   -0.6270   -1.9253 C   0  0  0  0  0  0  0  0  0  0  0  0
    4.1650    3.2895    0.5938 C   0  0  0  0  0  0  0  0  0  0  0  0
    6.7213    1.0783   -2.8111 C   0  0  0  0  0  0  0  0  0  0  0  0
    4.4845    1.6437    2.8207 C   0  0  0  0  0  0  0  0  0  0  0  0
    5.7595   -1.1320   -2.6730 C   0  0  0  0  0  0  0  0  0  0  0  0
    4.6391    3.8207    1.7953 C   0  0  0  0  0  0  0  0  0  0  0  0
    6.7709   -0.2826   -3.1146 C   0  0  0  0  0  0  0  0  0  0  0  0
    4.8021    2.9972    2.9066 C   0  0  0  0  0  0  0  0  0  0  0  0
  1  3  1  0  0  0  0
  1  8  1  0  0  0  0
  2  6  1  0  0  0  0
  2  7  1  0  0  0  0
  2  9  1  0  0  0  0
  3  4  1  0  0  0  0
  3  5  1  0  0  0  0
  4  6  1  0  0  0  0
  5  7  1  0  0  0  0
  8 10  1  0  0  0  0
  8 11  1  0  0  0  0
 10 12  2  0  0  0  0
 10 14  1  0  0  0  0
 11 13  2  0  0  0  0
 11 15  1  0  0  0  0
 12 16  1  0  0  0  0
 13 17  1  0  0  0  0
 14 18  2  0  0  0  0
 15 19  2  0  0  0  0
 16 20  2  0  0  0  0
 17 21  2  0  0  0  0
 18 20  1  0  0  0  0
 19 21  1  0  0  0  0
M  END
