449
 OpenBabel10141417483D

 25 25  0  0  1  0  0  0  0  0999 V2000
    1.6222    0.3222    1.0849 O   0  0  0  0  0  0  0  0  0  0  0  0
    2.8212    2.4776   -0.0278 O   0  0  0  0  0  0  0  0  0  0  0  0
    4.9300   -3.1433   -1.7022 O   0  0  0  0  0  0  0  0  0  0  0  0
    1.8253   -1.3275    2.7266 O   0  0  0  0  0  0  0  0  0  0  0  0
    4.4891    4.0586   -0.4773 O   0  0  0  0  0  0  0  0  0  0  0  0
    7.4117   -4.0448   -0.4178 N   0  0  0  0  0  0  0  0  0  0  0  0
   -0.2851   -0.1196    2.4981 C   0  0  0  0  0  0  0  0  0  0  0  0
    2.1498    4.5403   -1.0306 C   0  0  0  0  0  0  0  0  0  0  0  0
    4.7341   -1.2628   -0.2317 C   0  0  0  0  0  0  0  0  0  0  0  0
    5.3217   -2.6499   -0.4146 C   0  0  3  0  0  0  0  0  0  0  0  0
   -1.0486    0.4281    1.2836 C   0  0  0  0  0  0  0  0  0  0  0  0
   -1.0087   -1.3829    2.9959 C   0  0  0  0  0  0  0  0  0  0  0  0
   -0.2616    0.9204    3.6240 C   0  0  0  0  0  0  0  0  0  0  0  0
    1.1663   -0.4850    2.1393 C   0  0  0  0  0  0  0  0  0  0  0  0
    0.8219    4.2109   -0.3312 C   0  0  0  0  0  0  0  0  0  0  0  0
    2.4594    6.0316   -0.8353 C   0  0  0  0  0  0  0  0  0  0  0  0
    2.0285    4.2266   -2.5303 C   0  0  0  0  0  0  0  0  0  0  0  0
    3.3220    3.7156   -0.4630 C   0  0  0  0  0  0  0  0  0  0  0  0
    2.9065    0.1446    0.5220 C   0  0  0  0  0  0  0  0  0  0  0  0
    3.5632    1.2746    0.0215 C   0  0  0  0  0  0  0  0  0  0  0  0
    3.4695   -1.1221    0.3606 C   0  0  0  0  0  0  0  0  0  0  0  0
    6.8637   -2.6843   -0.2962 C   0  0  0  0  0  0  0  0  0  0  0  0
    5.3992   -0.1092   -0.6790 C   0  0  0  0  0  0  0  0  0  0  0  0
    4.8200    1.1523   -0.5591 C   0  0  0  0  0  0  0  0  0  0  0  0
    8.8664   -4.0018   -0.3530 C   0  0  0  0  0  0  0  0  0  0  0  0
  1 14  1  0  0  0  0
  1 19  1  0  0  0  0
  2 18  1  0  0  0  0
  2 20  1  0  0  0  0
  3 10  1  0  0  0  0
  4 14  2  0  0  0  0
  5 18  2  0  0  0  0
  6 22  1  0  0  0  0
  6 25  1  0  0  0  0
  7 11  1  0  0  0  0
  7 12  1  0  0  0  0
  7 13  1  0  0  0  0
  7 14  1  0  0  0  0
  8 15  1  0  0  0  0
  8 16  1  0  0  0  0
  8 17  1  0  0  0  0
  8 18  1  0  0  0  0
  9 10  1  0  0  0  0
  9 21  2  0  0  0  0
  9 23  1  0  0  0  0
 10 22  1  0  0  0  0
 19 20  2  0  0  0  0
 19 21  1  0  0  0  0
 20 24  1  0  0  0  0
 23 24  2  0  0  0  0
M  END
