954
 OpenBabel10141417513D

 58 61  0  0  1  0  0  0  0  0999 V2000
   -5.4366    0.4881   10.0128 O   0  0  0  0  0  0  0  0  0  0  0  0
    1.3767    1.7581    6.1319 O   0  0  0  0  0  0  0  0  0  0  0  0
    1.4781    0.6164    8.9169 O   0  0  0  0  0  0  0  0  0  0  0  0
   -6.4110    2.3812    8.0984 O   0  0  0  0  0  0  0  0  0  0  0  0
   -3.5404    2.6458    7.4455 O   0  0  0  0  0  0  0  0  0  0  0  0
   -2.5736   -0.2671    4.2901 O   0  0  0  0  0  0  0  0  0  0  0  0
    1.7529    3.7200    4.5016 O   0  0  0  0  0  0  0  0  0  0  0  0
   -1.5715   -2.5305    3.5956 O   0  0  0  0  0  0  0  0  0  0  0  0
   -7.0576   -2.7505   10.4895 O   0  0  0  0  0  0  0  0  0  0  0  0
   -0.8024    4.9435    6.6190 O   0  0  0  0  0  0  0  0  0  0  0  0
   -0.4049   -0.0088    1.7072 O   0  0  0  0  0  0  0  0  0  0  0  0
   -4.5841    2.1510    5.4872 O   0  0  0  0  0  0  0  0  0  0  0  0
    0.9015   -2.5854    0.7625 O   0  0  0  0  0  0  0  0  0  0  0  0
   -8.9959   -4.8675    9.4615 O   0  0  0  0  0  0  0  0  0  0  0  0
   -4.2702   -1.5712    9.8985 N   0  0  0  0  0  0  0  0  0  0  0  0
    1.9848    5.6275    7.9972 N   0  0  0  0  0  0  0  0  0  0  0  0
   -3.4439   -1.2572    8.7037 C   0  0  2  0  0  0  0  0  0  0  0  0
   -3.9917    0.0434    8.0674 C   0  0  2  0  0  0  0  0  0  0  0  0
   -1.8340   -1.5364    8.7011 C   0  0  1  0  0  0  0  0  0  0  0  0
   -4.4780    1.1139    9.1505 C   0  0  1  0  0  0  0  0  0  0  0  0
    0.1308    0.6309    8.3249 C   0  0  2  0  0  0  0  0  0  0  0  0
   -0.6924   -0.5245    9.1055 C   0  0  0  0  0  0  0  0  0  0  0  0
   -5.1960    2.5743    8.8408 C   0  0  1  0  0  0  0  0  0  0  0  0
    0.4782    0.6612    6.7231 C   0  0  1  0  0  0  0  0  0  0  0  0
   -0.5419   -0.1055    5.8231 C   0  0  1  0  0  0  0  0  0  0  0  0
   -5.5754   -0.8927    9.8219 C   0  0  1  0  0  0  0  0  0  0  0  0
   -4.4396    3.5856    7.9806 C   0  0  1  0  0  0  0  0  0  0  0  0
   -1.5846    0.6464    4.8690 C   0  0  2  0  0  0  0  0  0  0  0  0
   -5.0631   -0.3124    6.9950 C   0  0  0  0  0  0  0  0  0  0  0  0
   -1.6119   -2.7745    9.6101 C   0  0  0  0  0  0  0  0  0  0  0  0
   -0.4056    1.8776    8.9947 C   0  0  0  0  0  0  0  0  0  0  0  0
   -2.2636    1.6228    5.9057 C   0  0  2  0  0  0  0  0  0  0  0  0
   -5.5841    3.1791   10.1782 C   0  0  0  0  0  0  0  0  0  0  0  0
    0.2169   -1.2444    5.2341 C   0  0  0  0  0  0  0  0  0  0  0  0
   -6.7637   -1.3577   10.6728 C   0  0  0  0  0  0  0  0  0  0  0  0
   -3.7712    4.8841    8.5745 C   0  0  0  0  0  0  0  0  0  0  0  0
    0.9229    3.0664    5.5288 C   0  0  2  0  0  0  0  0  0  0  0  0
    0.4810    4.2323    6.6093 C   0  0  1  0  0  0  0  0  0  0  0  0
   -3.5821    2.0678    6.2628 C   0  0  0  0  0  0  0  0  0  0  0  0
   -2.4059   -1.3695    3.3154 C   0  0  2  0  0  0  0  0  0  0  0  0
    1.2370    5.5253    6.7551 C   0  0  2  0  0  0  0  0  0  0  0  0
   -1.0985   -1.1232    1.0997 C   0  0  2  0  0  0  0  0  0  0  0  0
   -2.4785   -1.2134    1.7899 C   0  0  0  0  0  0  0  0  0  0  0  0
   -1.7843    3.0103    6.1354 C   0  0  0  0  0  0  0  0  0  0  0  0
    1.9033    5.9229    5.4586 C   0  0  0  0  0  0  0  0  0  0  0  0
    1.3393    5.1105    4.2903 C   0  0  1  0  0  0  0  0  0  0  0  0
   -0.4097   -2.5135    1.3433 C   0  0  2  0  0  0  0  0  0  0  0  0
   -4.7714    5.9005    9.1431 C   0  0  0  0  0  0  0  0  0  0  0  0
   -0.3217   -2.6726    2.8512 C   0  0  2  0  0  0  0  0  0  0  0  0
   -1.3656   -0.7987   -0.3717 C   0  0  0  0  0  0  0  0  0  0  0  0
    1.7696    5.6975    2.9372 C   0  0  0  0  0  0  0  0  0  0  0  0
    0.4776   -3.8464    3.4173 C   0  0  0  0  0  0  0  0  0  0  0  0
   -7.3966   -3.0481    9.1265 C   0  0  0  0  0  0  0  0  0  0  0  0
    3.0249    4.6179    8.0303 C   0  0  0  0  0  0  0  0  0  0  0  0
    1.1166    5.5680    9.1935 C   0  0  0  0  0  0  0  0  0  0  0  0
    0.9147    0.2788    1.2538 C   0  0  0  0  0  0  0  0  0  0  0  0
   -7.7355   -4.5117    8.9075 C   0  0  0  0  0  0  0  0  0  0  0  0
   -9.2548   -6.2554    9.2710 C   0  0  0  0  0  0  0  0  0  0  0  0
  1 26  1  0  0  0  0
  5 27  1  0  0  0  0
  5 39  1  0  0  0  0
  7 37  1  0  0  0  0
  7 46  1  0  0  0  0
  8 40  1  0  0  0  0
  8 49  1  0  0  0  0
  9 35  1  0  0  0  0
  9 53  1  0  0  0  0
 11 56  1  0  0  0  0
 12 39  2  0  0  0  0
 14 57  1  0  0  0  0
 14 58  1  0  0  0  0
 15 26  1  0  0  0  0
 16 54  1  0  0  0  0
 16 55  1  0  0  0  0
 17 15  1  6  0  0  0
 17 18  1  0  0  0  0
 17 19  1  0  0  0  0
 18 20  1  0  0  0  0
 18 29  1  6  0  0  0
 19 22  1  0  0  0  0
 19 30  1  1  0  0  0
 20  1  1  1  0  0  0
 20 23  1  0  0  0  0
 21  3  1  1  0  0  0
 21 22  1  0  0  0  0
 21 24  1  0  0  0  0
 21 31  1  0  0  0  0
 23  4  1  6  0  0  0
 23 27  1  0  0  0  0
 23 33  1  0  0  0  0
 24  2  1  6  0  0  0
 24 25  1  0  0  0  0
 25 28  1  0  0  0  0
 25 34  1  6  0  0  0
 26 35  1  1  0  0  0
 27 36  1  1  0  0  0
 28 32  1  0  0  0  0
 28  6  1  1  0  0  0
 32 39  1  0  0  0  0
 32 44  1  6  0  0  0
 36 48  1  0  0  0  0
 37  2  1  1  0  0  0
 37 38  1  0  0  0  0
 38 41  1  0  0  0  0
 38 10  1  6  0  0  0
 40  6  1  1  0  0  0
 40 43  1  0  0  0  0
 41 16  1  1  0  0  0
 41 45  1  0  0  0  0
 42 43  1  0  0  0  0
 42 47  1  0  0  0  0
 42 50  1  6  0  0  0
 42 11  1  0  0  0  0
 45 46  1  0  0  0  0
 46 51  1  6  0  0  0
 47 13  1  6  0  0  0
 47 49  1  0  0  0  0
 49 52  1  6  0  0  0
 53 57  1  0  0  0  0
M  END
