
 OpenBabel10141417493D

 25 26  0  0  0  0  0  0  0  0999 V2000
   -1.5418   -0.2071    0.7823 N   0  0  0  0  0  0  0  0  0  0  0  0
   -1.3653    0.9428    1.4852 C   0  0  0  0  0  0  0  0  0  0  0  0
   -1.4029    1.0307    2.8647 C   0  0  0  0  0  0  0  0  0  0  0  0
   -1.6258   -0.1341    3.5730 C   0  0  0  0  0  0  0  0  0  0  0  0
   -1.8013   -1.3332    2.8757 C   0  0  0  0  0  0  0  0  0  0  0  0
   -1.7461   -1.3652    1.4730 C   0  0  0  0  0  0  0  0  0  0  0  0
   -1.9906   -2.7088    0.6655 C   0  0  3  0  0  0  0  0  0  0  0  0
   -1.2731   -2.6836   -0.7630 C   0  0  0  0  0  0  0  0  0  0  0  0
    0.2922   -2.6228   -0.7888 C   0  0  0  0  0  0  0  0  0  0  0  0
    1.0260   -2.5877   -2.0935 N   0  0  0  0  0  0  0  0  0  0  0  0
    0.7538   -3.7172   -3.0230 C   0  0  0  0  0  0  0  0  0  0  0  0
    1.4779   -3.6727   -4.3912 C   0  0  0  0  0  0  0  0  0  0  0  0
    1.1426   -5.0767   -2.3980 C   0  0  0  0  0  0  0  0  0  0  0  0
    1.2459   -1.2474   -2.6755 C   0  0  0  0  0  0  0  0  0  0  0  0
   -0.0233   -0.4285   -2.8971 C   0  0  0  0  0  0  0  0  0  0  0  0
    2.2296   -0.3912   -1.8504 C   0  0  0  0  0  0  0  0  0  0  0  0
   -1.5327   -3.9031    1.5167 C   0  0  0  0  0  0  0  0  0  0  0  0
   -2.3151   -4.3902    2.5022 N   0  0  0  0  0  0  0  0  0  0  0  0
   -3.5590   -2.8511    0.3201 C   0  0  0  0  0  0  0  0  0  0  0  0
   -0.4582   -4.4461    1.4053 O   0  0  0  0  0  0  0  0  0  0  0  0
   -4.4341   -1.7503    0.1732 C   0  0  0  0  0  0  0  0  0  0  0  0
   -5.7393   -1.9171   -0.3179 C   0  0  0  0  0  0  0  0  0  0  0  0
   -6.2091   -3.1788   -0.6685 C   0  0  0  0  0  0  0  0  0  0  0  0
   -5.3957   -4.2874   -0.4702 C   0  0  0  0  0  0  0  0  0  0  0  0
   -4.0885   -4.1231    0.0137 C   0  0  0  0  0  0  0  0  0  0  0  0
  1  2  1  0  0  0  0
  1  6  2  0  0  0  0
  2  3  2  0  0  0  0
  3  4  1  0  0  0  0
  4  5  2  0  0  0  0
  5  6  1  0  0  0  0
  6  7  1  0  0  0  0
  7  8  1  0  0  0  0
  7 17  1  0  0  0  0
  7 19  1  0  0  0  0
  8  9  1  0  0  0  0
  9 10  1  0  0  0  0
 10 11  1  0  0  0  0
 10 14  1  0  0  0  0
 11 12  1  0  0  0  0
 11 13  1  0  0  0  0
 14 15  1  0  0  0  0
 14 16  1  0  0  0  0
 17 18  1  0  0  0  0
 17 20  2  0  0  0  0
 19 21  2  0  0  0  0
 19 25  1  0  0  0  0
 21 22  1  0  0  0  0
 22 23  2  0  0  0  0
 23 24  1  0  0  0  0
 24 25  2  0  0  0  0
M  END
