822
 OpenBabel10141417493D

 16 15  0  0  0  0  0  0  0  0999 V2000
    1.6329   -1.4803   -1.1512 S   0  0  0  0  0  0  0  0  0  0  0  0
    0.0968   -2.7035   -0.5069 S   0  0  0  0  0  0  0  0  0  0  0  0
    3.8787   -1.8685    0.7145 S   0  0  0  0  0  0  0  0  0  0  0  0
    1.0275   -4.3228    1.7636 S   0  0  0  0  0  0  0  0  0  0  0  0
    1.8952   -0.0035    1.1457 N   0  0  0  0  0  0  0  0  0  0  0  0
    1.4288   -5.0937   -0.8539 N   0  0  0  0  0  0  0  0  0  0  0  0
    2.4583    0.3512    2.4638 C   0  0  0  0  0  0  0  0  0  0  0  0
    0.8218    0.8918    0.6846 C   0  0  0  0  0  0  0  0  0  0  0  0
    2.2091   -6.2715   -0.4019 C   0  0  0  0  0  0  0  0  0  0  0  0
    1.3129   -4.9468   -2.3249 C   0  0  0  0  0  0  0  0  0  0  0  0
    1.6979   -0.2991    3.6108 C   0  0  0  0  0  0  0  0  0  0  0  0
    1.3863    2.0875   -0.0827 C   0  0  0  0  0  0  0  0  0  0  0  0
    3.6946   -5.9995   -0.2055 C   0  0  0  0  0  0  0  0  0  0  0  0
    0.5780   -6.0999   -3.0103 C   0  0  0  0  0  0  0  0  0  0  0  0
    2.4470   -1.0436    0.3667 C   0  0  0  0  0  0  0  0  0  0  0  0
    0.9473   -4.1503    0.0820 C   0  0  0  0  0  0  0  0  0  0  0  0
  1  2  1  0  0  0  0
  1 15  1  0  0  0  0
  2 16  1  0  0  0  0
  3 15  2  0  0  0  0
  4 16  2  0  0  0  0
  5  7  1  0  0  0  0
  5  8  1  0  0  0  0
  5 15  1  0  0  0  0
  6  9  1  0  0  0  0
  6 10  1  0  0  0  0
  6 16  1  0  0  0  0
  7 11  1  0  0  0  0
  8 12  1  0  0  0  0
  9 13  1  0  0  0  0
 10 14  1  0  0  0  0
M  END
