841
 OpenBabel10141417503D

 22 23  0  0  1  0  0  0  0  0999 V2000
    0.9848   -2.0729    4.6960 O   0  0  0  0  0  0  0  0  0  0  0  0
    7.4019   -9.8745   -6.9285 O   0  0  0  0  0  0  0  0  0  0  0  0
    1.8599   -3.1020    7.0478 O   0  0  0  0  0  0  0  0  0  0  0  0
    5.1380   -6.1876    0.4227 N   0  0  0  0  0  0  0  0  0  0  0  0
    4.3997   -5.7803   -0.7919 C   0  0  3  0  0  0  0  0  0  0  0  0
    4.7745   -6.6944   -1.9917 C   0  0  0  0  0  0  0  0  0  0  0  0
    6.2400   -6.6062   -2.4291 C   0  0  0  0  0  0  0  0  0  0  0  0
    4.9303   -5.3994    1.6559 C   0  0  0  0  0  0  0  0  0  0  0  0
    2.8697   -5.8389   -0.6610 C   0  0  0  0  0  0  0  0  0  0  0  0
    3.5187   -5.4903    2.2343 C   0  0  0  0  0  0  0  0  0  0  0  0
    6.5560   -7.4713   -3.6324 C   0  0  0  0  0  0  0  0  0  0  0  0
    3.2203   -4.7463    3.5022 C   0  0  0  0  0  0  0  0  0  0  0  0
    6.4518   -6.9482   -4.9296 C   0  0  0  0  0  0  0  0  0  0  0  0
    6.9649   -8.8043   -3.4751 C   0  0  0  0  0  0  0  0  0  0  0  0
    2.3334   -3.6539    3.4714 C   0  0  0  0  0  0  0  0  0  0  0  0
    3.7083   -5.2187    4.7263 C   0  0  0  0  0  0  0  0  0  0  0  0
    6.7331   -7.7416   -6.0471 C   0  0  0  0  0  0  0  0  0  0  0  0
    7.2684   -9.5908   -4.5907 C   0  0  0  0  0  0  0  0  0  0  0  0
    1.8936   -3.0913    4.6685 C   0  0  0  0  0  0  0  0  0  0  0  0
    7.1356   -9.0604   -5.8672 C   0  0  0  0  0  0  0  0  0  0  0  0
    3.2577   -4.6534    5.9160 C   0  0  0  0  0  0  0  0  0  0  0  0
    2.3414   -3.6123    5.8754 C   0  0  0  0  0  0  0  0  0  0  0  0
  1 19  1  0  0  0  0
  2 20  1  0  0  0  0
  3 22  1  0  0  0  0
  4  5  1  0  0  0  0
  4  8  1  0  0  0  0
  5  6  1  0  0  0  0
  5  9  1  0  0  0  0
  6  7  1  0  0  0  0
  7 11  1  0  0  0  0
  8 10  1  0  0  0  0
 10 12  1  0  0  0  0
 11 13  2  0  0  0  0
 11 14  1  0  0  0  0
 12 15  2  0  0  0  0
 12 16  1  0  0  0  0
 13 17  1  0  0  0  0
 14 18  2  0  0  0  0
 15 19  1  0  0  0  0
 16 21  2  0  0  0  0
 17 20  2  0  0  0  0
 18 20  1  0  0  0  0
 19 22  2  0  0  0  0
 21 22  1  0  0  0  0
M  END
