1248
 OpenBabel10141417503D

 58 63  0  0  1  0  0  0  0  0999 V2000
    6.8041   -0.0723   -5.2664 O   0  0  0  0  0  0  0  0  0  0  0  0
    6.2516    0.6406   -2.7546 O   0  0  0  0  0  0  0  0  0  0  0  0
    7.0607   -2.8877   -1.1906 O   0  0  0  0  0  0  0  0  0  0  0  0
    8.6252   -3.1225    1.1179 O   0  0  0  0  0  0  0  0  0  0  0  0
   10.7938    0.2491   -3.6240 O   0  0  0  0  0  0  0  0  0  0  0  0
   11.4498    1.0808   -1.2434 O   0  0  0  0  0  0  0  0  0  0  0  0
   11.2684    1.3273    1.4238 O   0  0  0  0  0  0  0  0  0  0  0  0
    5.4447    0.3581    2.3039 O   0  0  0  0  0  0  0  0  0  0  0  0
    4.6909   -0.8328   -1.9543 O   0  0  0  0  0  0  0  0  0  0  0  0
    8.6404   -4.3965   -1.9690 O   0  0  0  0  0  0  0  0  0  0  0  0
    4.8330   -0.8621    4.1177 O   0  0  0  0  0  0  0  0  0  0  0  0
    2.5900    0.0992    4.4858 O   0  0  0  0  0  0  0  0  0  0  0  0
   -1.3090    1.3593    2.9982 O   0  0  0  0  0  0  0  0  0  0  0  0
    0.1293    0.1635    4.3588 O   0  0  0  0  0  0  0  0  0  0  0  0
    0.7191    0.9339    2.3270 N   0  0  0  0  0  0  0  0  0  0  0  0
    8.2322   -0.5733   -2.0283 C   0  0  2  0  0  0  0  0  0  0  0  0
    7.1315   -0.3389   -3.1676 C   0  0  2  0  0  0  0  0  0  0  0  0
    9.1057    0.8446   -1.8812 C   0  0  1  0  0  0  0  0  0  0  0  0
    7.9844    0.0550   -4.4278 C   0  0  1  0  0  0  0  0  0  0  0  0
    7.9960   -1.7527   -0.8502 C   0  0  1  0  0  0  0  0  0  0  0  0
    8.2083   -1.7647    0.8204 C   0  0  2  0  0  0  0  0  0  0  0  0
    9.7884    1.2133   -3.3139 C   0  0  2  0  0  0  0  0  0  0  0  0
    8.8406    1.2890   -4.5396 C   0  0  0  0  0  0  0  0  0  0  0  0
    9.4433   -1.0110    1.3402 C   0  0  0  0  0  0  0  0  0  0  0  0
    6.4281   -1.1748   -4.3151 C   0  0  0  0  0  0  0  0  0  0  0  0
   10.2761    1.0358   -0.8310 C   0  0  0  0  0  0  0  0  0  0  0  0
    6.9838   -1.5717    1.8019 C   0  0  0  0  0  0  0  0  0  0  0  0
    9.0286    0.4314    1.3372 C   0  0  0  0  0  0  0  0  0  0  0  0
    8.2326    2.0696   -1.6896 C   0  0  0  0  0  0  0  0  0  0  0  0
   10.0306    1.3423    0.7059 C   0  0  1  0  0  0  0  0  0  0  0  0
    6.8147   -0.1996    2.4725 C   0  0  1  0  0  0  0  0  0  0  0  0
    7.8844    0.7834    2.0005 C   0  0  0  0  0  0  0  0  0  0  0  0
    9.8452   -1.2701    2.8329 C   0  0  0  0  0  0  0  0  0  0  0  0
   10.7105   -1.4386    0.5422 C   0  0  0  0  0  0  0  0  0  0  0  0
    7.5981    2.1408    2.5497 C   0  0  0  0  0  0  0  0  0  0  0  0
    5.1906    0.1836   -2.0622 C   0  0  0  0  0  0  0  0  0  0  0  0
    7.5915   -4.1676   -1.3806 C   0  0  0  0  0  0  0  0  0  0  0  0
    4.9263    1.4612   -1.3880 C   0  0  0  0  0  0  0  0  0  0  0  0
    4.5334   -0.0313    3.2561 C   0  0  0  0  0  0  0  0  0  0  0  0
    6.9021   -5.2385   -0.5174 C   0  0  0  0  0  0  0  0  0  0  0  0
    3.1234    0.6641    3.2596 C   0  0  1  0  0  0  0  0  0  0  0  0
    7.0867   -6.6153   -0.7153 C   0  0  0  0  0  0  0  0  0  0  0  0
    6.2004   -4.8648    0.6420 C   0  0  0  0  0  0  0  0  0  0  0  0
    2.0660    0.3515    2.1568 C   0  0  2  0  0  0  0  0  0  0  0  0
    6.6218   -7.5512    0.2380 C   0  0  0  0  0  0  0  0  0  0  0  0
    5.7443   -5.7798    1.5919 C   0  0  0  0  0  0  0  0  0  0  0  0
    5.9625   -7.1310    1.3940 C   0  0  0  0  0  0  0  0  0  0  0  0
    2.3159    0.8279    0.7640 C   0  0  0  0  0  0  0  0  0  0  0  0
    1.5197    0.1597   -0.2512 C   0  0  0  0  0  0  0  0  0  0  0  0
    2.9513    2.0258    0.5047 C   0  0  0  0  0  0  0  0  0  0  0  0
   -0.1205    0.7903    3.3506 C   0  0  0  0  0  0  0  0  0  0  0  0
    1.5863    0.4145   -1.5912 C   0  0  0  0  0  0  0  0  0  0  0  0
    2.8294    2.4366   -0.8247 C   0  0  0  0  0  0  0  0  0  0  0  0
    2.3534    1.4972   -1.8808 C   0  0  0  0  0  0  0  0  0  0  0  0
   -2.1423    1.9619    4.0237 C   0  0  0  0  0  0  0  0  0  0  0  0
   -1.7659    3.4548    4.0560 C   0  0  0  0  0  0  0  0  0  0  0  0
   -3.6319    1.8484    3.6801 C   0  0  0  0  0  0  0  0  0  0  0  0
   -2.0289    1.2052    5.3366 C   0  0  0  0  0  0  0  0  0  0  0  0
  1 25  1  0  0  0  0
  2 36  1  0  0  0  0
  3 37  1  0  0  0  0
  6 26  2  0  0  0  0
  8 39  1  0  0  0  0
  9 36  2  0  0  0  0
 10 37  2  0  0  0  0
 11 39  2  0  0  0  0
 13 51  1  0  0  0  0
 13 55  1  0  0  0  0
 14 51  2  0  0  0  0
 15 51  1  0  0  0  0
 16 17  1  6  0  0  0
 16 18  1  0  0  0  0
 16 20  1  0  0  0  0
 17 19  1  0  0  0  0
 17 25  1  0  0  0  0
 17  2  1  1  0  0  0
 18 22  1  0  0  0  0
 18 26  1  0  0  0  0
 18 29  1  6  0  0  0
 19  1  1  1  0  0  0
 19 23  1  0  0  0  0
 20 21  1  0  0  0  0
 20  3  1  1  0  0  0
 21 24  1  0  0  0  0
 21 27  1  0  0  0  0
 21  4  1  1  0  0  0
 22 23  1  0  0  0  0
 22  5  1  6  0  0  0
 24 28  1  0  0  0  0
 24 33  1  0  0  0  0
 24 34  1  0  0  0  0
 26 30  1  0  0  0  0
 27 31  1  0  0  0  0
 28 30  1  0  0  0  0
 28 32  2  0  0  0  0
 30  7  1  1  0  0  0
 31 32  1  0  0  0  0
 31  8  1  6  0  0  0
 32 35  1  0  0  0  0
 36 38  1  0  0  0  0
 37 40  1  0  0  0  0
 40 42  2  0  0  0  0
 40 43  1  0  0  0  0
 41 44  1  0  0  0  0
 41 39  1  6  0  0  0
 41 12  1  0  0  0  0
 42 45  1  0  0  0  0
 43 46  2  0  0  0  0
 44 15  1  1  0  0  0
 44 48  1  0  0  0  0
 45 47  2  0  0  0  0
 46 47  1  0  0  0  0
 48 49  2  0  0  0  0
 48 50  1  0  0  0  0
 49 52  1  0  0  0  0
 50 53  2  0  0  0  0
 52 54  2  0  0  0  0
 53 54  1  0  0  0  0
 55 56  1  0  0  0  0
 55 57  1  0  0  0  0
 55 58  1  0  0  0  0
M  END
