204
 OpenBabel10141418003D

 29 30  0  0  1  0  0  0  0  0999 V2000
    1.7054    3.1927   -1.3139 S   0  0  0  0  0  0  0  0  0  0  0  0
  -15.5466   -0.0929    4.4984 S   0  0  0  0  0  0  0  0  0  0  0  0
   -9.4193    1.1913    2.6217 O   0  0  0  0  0  0  0  0  0  0  0  0
    2.9817    2.5127   -1.0696 O   0  0  0  0  0  0  0  0  0  0  0  0
    1.6527    4.6101   -1.6692 O   0  0  0  0  0  0  0  0  0  0  0  0
  -16.5784   -0.7293    5.2947 O   0  0  0  0  0  0  0  0  0  0  0  0
  -15.3321    1.3428    4.5823 O   0  0  0  0  0  0  0  0  0  0  0  0
   -6.9098    2.7616    1.6210 N   0  0  0  0  0  0  0  0  0  0  0  0
    0.7987    2.9870    0.0868 N   0  0  0  0  0  0  0  0  0  0  0  0
  -14.1064   -0.8927    4.8960 N   0  0  0  0  0  0  0  0  0  0  0  0
   -5.4271    2.7775    1.5348 C   0  0  0  0  0  0  0  0  0  0  0  0
   -4.9183    2.9791    0.0898 C   0  0  0  0  0  0  0  0  0  0  0  0
   -7.3302    2.5114    3.0102 C   0  0  0  0  0  0  0  0  0  0  0  0
   -3.4140    3.0048   -0.0212 C   0  0  0  0  0  0  0  0  0  0  0  0
   -8.8391    2.3386    3.2687 C   0  0  0  0  0  0  0  0  0  0  0  0
   -7.4761    4.0120    1.1121 C   0  0  0  0  0  0  0  0  0  0  0  0
   -2.7046    1.8289   -0.2736 C   0  0  0  0  0  0  0  0  0  0  0  0
   -2.7079    4.2083    0.1475 C   0  0  0  0  0  0  0  0  0  0  0  0
   -0.6197    3.0245    0.0131 C   0  0  0  0  0  0  0  0  0  0  0  0
   -1.3133    1.8390   -0.2412 C   0  0  0  0  0  0  0  0  0  0  0  0
   -1.3098    4.2245    0.1433 C   0  0  0  0  0  0  0  0  0  0  0  0
  -10.5797    0.7197    3.1958 C   0  0  0  0  0  0  0  0  0  0  0  0
  -12.9054   -0.3770    4.3306 C   0  0  0  0  0  0  0  0  0  0  0  0
  -11.0995    1.1984    4.4026 C   0  0  0  0  0  0  0  0  0  0  0  0
  -11.2629   -0.3151    2.5433 C   0  0  0  0  0  0  0  0  0  0  0  0
  -12.2424    0.6532    4.9742 C   0  0  0  0  0  0  0  0  0  0  0  0
  -12.4343   -0.8523    3.1056 C   0  0  0  0  0  0  0  0  0  0  0  0
    0.7822    2.3001   -2.5479 C   0  0  0  0  0  0  0  0  0  0  0  0
  -15.7812   -0.5627    2.8008 C   0  0  0  0  0  0  0  0  0  0  0  0
  1  4  2  0  0  0  0
  1  5  2  0  0  0  0
  1  9  1  0  0  0  0
  1 28  1  0  0  0  0
  2  6  2  0  0  0  0
  2  7  2  0  0  0  0
  2 10  1  0  0  0  0
  2 29  1  0  0  0  0
  3 15  1  0  0  0  0
  3 22  1  0  0  0  0
  8 11  1  0  0  0  0
  8 13  1  0  0  0  0
  8 16  1  0  0  0  0
  9 19  1  0  0  0  0
 10 23  1  0  0  0  0
 11 12  1  0  0  0  0
 12 14  1  0  0  0  0
 13 15  1  0  0  0  0
 14 17  2  0  0  0  0
 14 18  1  0  0  0  0
 17 20  1  0  0  0  0
 18 21  2  0  0  0  0
 19 20  2  0  0  0  0
 19 21  1  0  0  0  0
 22 24  2  0  0  0  0
 22 25  1  0  0  0  0
 23 26  2  0  0  0  0
 23 27  1  0  0  0  0
 24 26  1  0  0  0  0
 25 27  2  0  0  0  0
M  END
