
 OpenBabel10141417583D

 30 33  0  0  0  0  0  0  0  0999 V2000
   -0.6525   -1.3231    0.5388 C   0  0  0  0  0  0  0  0  0  0  0  0
   -0.7065    0.0779    0.6850 N   0  0  0  0  0  0  0  0  0  0  0  0
   -1.9506    0.6969    0.7254 C   0  0  0  0  0  0  0  0  0  0  0  0
   -3.1258    0.0573    0.8248 C   0  0  0  0  0  0  0  0  0  0  0  0
   -3.0527   -1.4116    0.9813 C   0  0  0  0  0  0  0  0  0  0  0  0
   -1.7477   -2.0952    0.7167 C   0  0  0  0  0  0  0  0  0  0  0  0
    0.6524   -1.9829    0.1058 C   0  0  0  0  0  0  0  0  0  0  0  0
    1.8041   -1.1883    0.1379 N   0  0  0  0  0  0  0  0  0  0  0  0
    1.7770    0.0994    0.8177 C   0  0  2  0  0  0  0  0  0  0  0  0
    0.5025    0.8831    0.4663 C   0  0  0  0  0  0  0  0  0  0  0  0
    3.0905   -1.8592   -0.0672 C   0  0  1  0  0  0  0  0  0  0  0  0
    4.1830   -0.8611   -0.4340 C   0  0  0  0  0  0  0  0  0  0  0  0
    4.1422    0.3089    0.5231 C   0  0  0  0  0  0  0  0  0  0  0  0
    2.8714    0.9306    0.4179 O   0  0  0  0  0  0  0  0  0  0  0  0
    0.6943   -3.1415   -0.3027 O   0  0  0  0  0  0  0  0  0  0  0  0
   -1.7809   -3.4737    0.6575 O   0  0  0  0  0  0  0  0  0  0  0  0
   -4.0385   -2.0990    1.2577 O   0  0  0  0  0  0  0  0  0  0  0  0
   -4.3818    0.8450    0.7084 C   0  0  0  0  0  0  0  0  0  0  0  0
   -5.5432    0.1215    0.7867 N   0  0  0  0  0  0  0  0  0  0  0  0
   -4.3627    2.0543    0.5237 O   0  0  0  0  0  0  0  0  0  0  0  0
   -6.8361    0.7423    0.6051 C   0  0  0  0  0  0  0  0  0  0  0  0
   -7.9081   -0.0177    1.3335 C   0  0  0  0  0  0  0  0  0  0  0  0
   -7.8726   -0.1410    2.7324 C   0  0  0  0  0  0  0  0  0  0  0  0
   -8.8675   -0.8566    3.4008 C   0  0  0  0  0  0  0  0  0  0  0  0
   -9.8955   -1.4478    2.6736 C   0  0  0  0  0  0  0  0  0  0  0  0
   -9.9562   -1.3293    1.2927 C   0  0  0  0  0  0  0  0  0  0  0  0
   -8.9645   -0.6115    0.6348 C   0  0  0  0  0  0  0  0  0  0  0  0
   -9.0332   -0.4956   -0.6988 F   0  0  0  0  0  0  0  0  0  0  0  0
  -10.8421   -2.1423    3.3180 F   0  0  0  0  0  0  0  0  0  0  0  0
    3.4850   -2.7027    1.1524 C   0  0  0  0  0  0  0  0  0  0  0  0
  1  2  1  0  0  0  0
  1  6  2  0  0  0  0
  1  7  1  0  0  0  0
  2  3  1  0  0  0  0
  2 10  1  0  0  0  0
  3  4  2  0  0  0  0
  4  5  1  0  0  0  0
  4 18  1  0  0  0  0
  5  6  1  0  0  0  0
  5 17  2  0  0  0  0
  6 16  1  0  0  0  0
  7  8  1  0  0  0  0
  7 15  2  0  0  0  0
  8 11  1  0  0  0  0
  9  8  1  6  0  0  0
  9 10  1  0  0  0  0
  9 14  1  0  0  0  0
 11 12  1  0  0  0  0
 11 30  1  1  0  0  0
 12 13  1  0  0  0  0
 13 14  1  0  0  0  0
 18 19  1  0  0  0  0
 18 20  2  0  0  0  0
 19 21  1  0  0  0  0
 21 22  1  0  0  0  0
 22 23  2  0  0  0  0
 22 27  1  0  0  0  0
 23 24  1  0  0  0  0
 24 25  2  0  0  0  0
 25 26  1  0  0  0  0
 25 29  1  0  0  0  0
 26 27  2  0  0  0  0
 27 28  1  0  0  0  0
M  END
