843
 OpenBabel10141417513D

 28 31  0  0  1  0  0  0  0  0999 V2000
    1.3852    4.5850   -2.5941 O   0  0  0  0  0  0  0  0  0  0  0  0
   -3.8556    1.8443   -5.0556 O   0  0  0  0  0  0  0  0  0  0  0  0
   -2.4446    3.7820   -6.2258 O   0  0  0  0  0  0  0  0  0  0  0  0
    4.1676    2.7278    2.3276 N   0  0  0  0  0  0  0  0  0  0  0  0
    3.0893    3.1411   -0.4398 C   0  0  0  0  0  0  0  0  0  0  0  0
    1.8983    2.1928   -0.7181 C   0  0  0  0  0  0  0  0  0  0  0  0
    0.5665    2.8787   -1.0233 C   0  0  3  0  0  0  0  0  0  0  0  0
    4.3645    2.3266   -0.1517 C   0  0  0  0  0  0  0  0  0  0  0  0
    2.8443    4.1306    0.7110 C   0  0  0  0  0  0  0  0  0  0  0  0
    4.3730    1.7332    1.2622 C   0  0  0  0  0  0  0  0  0  0  0  0
    2.8953    3.4353    2.0773 C   0  0  0  0  0  0  0  0  0  0  0  0
   -0.5637    1.8411   -1.2682 C   0  0  0  0  0  0  0  0  0  0  0  0
    0.5962    3.6844   -2.3006 C   0  0  0  0  0  0  0  0  0  0  0  0
   -1.2036    2.2919   -2.5350 C   0  0  0  0  0  0  0  0  0  0  0  0
   -0.5018    3.3019   -3.1589 C   0  0  0  0  0  0  0  0  0  0  0  0
    5.2989    3.6723    2.4812 C   0  0  0  0  0  0  0  0  0  0  0  0
   -2.3429    1.7847   -3.1349 C   0  0  0  0  0  0  0  0  0  0  0  0
   -0.8524    3.8355   -4.3823 C   0  0  0  0  0  0  0  0  0  0  0  0
    6.6315    3.0409    2.8549 C   0  0  0  0  0  0  0  0  0  0  0  0
   -2.7475    2.2992   -4.3794 C   0  0  0  0  0  0  0  0  0  0  0  0
   -1.9910    3.3288   -5.0071 C   0  0  0  0  0  0  0  0  0  0  0  0
    7.7536    3.2128    2.0248 C   0  0  0  0  0  0  0  0  0  0  0  0
    6.7865    2.3041    4.0373 C   0  0  0  0  0  0  0  0  0  0  0  0
    8.9831    2.6295    2.3455 C   0  0  0  0  0  0  0  0  0  0  0  0
    8.0142    1.7079    4.3496 C   0  0  0  0  0  0  0  0  0  0  0  0
    9.1096    1.8644    3.5013 C   0  0  0  0  0  0  0  0  0  0  0  0
   -4.6223    0.8276   -4.4181 C   0  0  0  0  0  0  0  0  0  0  0  0
   -1.6671    4.7953   -6.8587 C   0  0  0  0  0  0  0  0  0  0  0  0
  1 13  2  0  0  0  0
  2 20  1  0  0  0  0
  2 27  1  0  0  0  0
  3 21  1  0  0  0  0
  3 28  1  0  0  0  0
  4 10  1  0  0  0  0
  4 11  1  0  0  0  0
  4 16  1  0  0  0  0
  5  6  1  0  0  0  0
  5  8  1  0  0  0  0
  5  9  1  0  0  0  0
  6  7  1  0  0  0  0
  7 12  1  0  0  0  0
  7 13  1  0  0  0  0
  8 10  1  0  0  0  0
  9 11  1  0  0  0  0
 12 14  1  0  0  0  0
 13 15  1  0  0  0  0
 14 15  1  0  0  0  0
 14 17  2  0  0  0  0
 15 18  2  0  0  0  0
 16 19  1  0  0  0  0
 17 20  1  0  0  0  0
 18 21  1  0  0  0  0
 19 22  2  0  0  0  0
 19 23  1  0  0  0  0
 20 21  2  0  0  0  0
 22 24  1  0  0  0  0
 23 25  2  0  0  0  0
 24 26  2  0  0  0  0
 25 26  1  0  0  0  0
M  END
