
 OpenBabel10141417513D

 19 20  0  0  1  0  0  0  0  0999 V2000
    0.3154    1.2581   -0.8216 C   0  0  0  0  0  0  0  0  0  0  0  0
    0.3203   -0.0739   -0.4537 C   0  0  0  0  0  0  0  0  0  0  0  0
   -1.0701    2.2663   -1.2839 S   0  0  0  0  0  0  0  0  0  0  0  0
    1.8673    1.9436   -0.8949 S   0  0  0  0  0  0  0  0  0  0  0  0
   -0.9562   -0.8706   -0.3416 C   0  0  2  0  0  0  0  0  0  0  0  0
    1.6607   -0.5392   -0.2673 C   0  0  0  0  0  0  0  0  0  0  0  0
   -2.4414    1.1044   -1.1095 C   0  0  2  0  0  0  0  0  0  0  0  0
   -0.8581    2.5611   -2.6859 O   0  0  0  0  0  0  0  0  0  0  0  0
   -1.1621    3.2942   -0.2687 O   0  0  0  0  0  0  0  0  0  0  0  0
    2.6030    0.4487   -0.4986 C   0  0  0  0  0  0  0  0  0  0  0  0
   -1.9909   -0.3503   -1.3747 C   0  0  0  0  0  0  0  0  0  0  0  0
   -1.4133   -0.7245    1.0436 N   0  0  0  0  0  0  0  0  0  0  0  0
   -3.5872    1.4924   -2.0383 C   0  0  0  0  0  0  0  0  0  0  0  0
    4.3825    0.4342   -0.4571 S   0  0  0  0  0  0  0  0  0  0  0  0
    4.8629    1.5707    0.6762 N   0  0  0  0  0  0  0  0  0  0  0  0
    4.7170   -0.8649    0.0829 O   0  0  0  0  0  0  0  0  0  0  0  0
    4.8156    0.8839   -1.7562 O   0  0  0  0  0  0  0  0  0  0  0  0
   -2.6347   -1.4796    1.3359 C   0  0  0  0  0  0  0  0  0  0  0  0
   -3.0425   -1.2864    2.7891 C   0  0  0  0  0  0  0  0  0  0  0  0
  2  1  2  0  0  0  0
  3  1  1  0  0  0  0
  4  1  1  0  0  0  0
  5  2  1  0  0  0  0
  5 12  1  1  0  0  0
  6  2  1  0  0  0  0
  7  3  1  0  0  0  0
  7 13  1  6  0  0  0
  8  3  2  0  0  0  0
  9  3  2  0  0  0  0
 10  4  1  0  0  0  0
 10  6  2  0  0  0  0
 11  5  1  0  0  0  0
 11  7  1  0  0  0  0
 12 18  1  0  0  0  0
 14 10  1  0  0  0  0
 15 14  1  0  0  0  0
 16 14  2  0  0  0  0
 17 14  2  0  0  0  0
 18 19  1  0  0  0  0
M  END
