1135
 OpenBabel10141417513D

 74 79  0  0  1  0  0  0  0  0999 V2000
   11.4830    8.0808   -8.0668 O   0  0  0  0  0  0  0  0  0  0  0  0
    2.7441    2.1133  -16.9906 O   0  0  0  0  0  0  0  0  0  0  0  0
    4.5149    4.5361   -8.7140 O   0  0  0  0  0  0  0  0  0  0  0  0
    0.2035    1.9220   -8.9991 O   0  0  0  0  0  0  0  0  0  0  0  0
   12.6288    7.3892   -5.1666 O   0  0  0  0  0  0  0  0  0  0  0  0
    4.9505    2.0495  -17.8590 O   0  0  0  0  0  0  0  0  0  0  0  0
   11.0876    7.8652   -3.0818 O   0  0  0  0  0  0  0  0  0  0  0  0
    7.1969    0.3696  -16.2140 O   0  0  0  0  0  0  0  0  0  0  0  0
   12.7204   11.8066   -5.7227 O   0  0  0  0  0  0  0  0  0  0  0  0
    2.3482    7.4350  -12.1315 O   0  0  0  0  0  0  0  0  0  0  0  0
   12.0729   13.6335  -10.2311 O   0  0  0  0  0  0  0  0  0  0  0  0
    3.8735    5.6919  -16.4101 O   0  0  0  0  0  0  0  0  0  0  0  0
   13.9443   12.6819   -7.7661 O   0  0  0  0  0  0  0  0  0  0  0  0
    3.5164    7.7419  -15.1514 O   0  0  0  0  0  0  0  0  0  0  0  0
    3.9824    5.6197   -6.7471 O   0  0  0  0  0  0  0  0  0  0  0  0
   -0.2127    4.0918   -9.6022 O   0  0  0  0  0  0  0  0  0  0  0  0
    7.2629    8.5608   -8.4957 N   0  3  3  0  0  0  0  0  0  0  0  0
    1.4648   -0.0586  -13.4591 N   0  3  3  0  0  0  0  0  0  0  0  0
    8.7859    9.1587   -8.3260 C   0  0  3  0  0  0  0  0  0  0  0  0
    1.9668    1.3086  -14.0805 C   0  0  3  0  0  0  0  0  0  0  0  0
    6.4568    9.0137   -7.2866 C   0  0  0  0  0  0  0  0  0  0  0  0
    2.5163   -0.8071  -12.6648 C   0  0  0  0  0  0  0  0  0  0  0  0
    7.3194    7.0179   -8.5502 C   0  0  0  0  0  0  0  0  0  0  0  0
    0.1372    0.0533  -12.5337 C   0  0  0  0  0  0  0  0  0  0  0  0
    9.4404    8.5186   -7.0475 C   0  0  0  0  0  0  0  0  0  0  0  0
    3.2809    1.0776  -14.7990 C   0  0  0  0  0  0  0  0  0  0  0  0
    7.1669    8.7491   -5.9619 C   0  0  0  0  0  0  0  0  0  0  0  0
    3.9637   -0.6171  -13.0631 C   0  0  0  0  0  0  0  0  0  0  0  0
    6.5821    9.0704   -9.7709 C   0  0  0  0  0  0  0  0  0  0  0  0
    1.1398   -0.9876  -14.7633 C   0  0  0  0  0  0  0  0  0  0  0  0
    8.6762   10.7666   -8.2895 C   0  0  0  0  0  0  0  0  0  0  0  0
    1.8946    2.6192  -13.1102 C   0  0  0  0  0  0  0  0  0  0  0  0
    8.6342    8.4113   -5.9109 C   0  0  0  0  0  0  0  0  0  0  0  0
    4.2768    0.3552  -14.1506 C   0  0  0  0  0  0  0  0  0  0  0  0
    5.9235    6.4562   -8.7263 C   0  0  0  0  0  0  0  0  0  0  0  0
    0.3395    0.9255  -11.2207 C   0  0  0  0  0  0  0  0  0  0  0  0
   10.8006    8.1044   -6.8676 C   0  0  0  0  0  0  0  0  0  0  0  0
    3.5926    1.5050  -16.0953 C   0  0  0  0  0  0  0  0  0  0  0  0
    9.9846   11.5158   -8.1988 C   0  0  0  0  0  0  0  0  0  0  0  0
    2.3668    4.0448  -13.4189 C   0  0  0  0  0  0  0  0  0  0  0  0
    9.1597    8.1120   -4.6063 C   0  0  0  0  0  0  0  0  0  0  0  0
    5.5908    0.3134  -14.6434 C   0  0  0  0  0  0  0  0  0  0  0  0
    5.8832    4.9585   -8.5947 C   0  0  0  0  0  0  0  0  0  0  0  0
   -0.6192    1.2542  -10.0272 C   0  0  0  0  0  0  0  0  0  0  0  0
   11.3494    7.8000   -5.5212 C   0  0  0  0  0  0  0  0  0  0  0  0
    4.9365    1.4296  -16.6319 C   0  0  0  0  0  0  0  0  0  0  0  0
   10.5076    7.9048   -4.3474 C   0  0  0  0  0  0  0  0  0  0  0  0
    5.9482    0.8173  -15.8950 C   0  0  0  0  0  0  0  0  0  0  0  0
   10.4470   12.4333   -9.1382 C   0  0  0  0  0  0  0  0  0  0  0  0
    3.0155    4.2895  -14.5942 C   0  0  0  0  0  0  0  0  0  0  0  0
   10.7910   11.3080   -7.0963 C   0  0  0  0  0  0  0  0  0  0  0  0
    2.1429    5.1903  -12.6623 C   0  0  0  0  0  0  0  0  0  0  0  0
   12.0113   11.9392   -6.9004 C   0  0  0  0  0  0  0  0  0  0  0  0
    2.4837    6.5058  -13.1429 C   0  0  0  0  0  0  0  0  0  0  0  0
   11.7646   12.9897   -9.0557 C   0  0  0  0  0  0  0  0  0  0  0  0
    3.3236    5.5163  -15.1618 C   0  0  0  0  0  0  0  0  0  0  0  0
   12.5850   12.6923   -7.9376 C   0  0  0  0  0  0  0  0  0  0  0  0
    3.0591    6.6612  -14.4342 C   0  0  0  0  0  0  0  0  0  0  0  0
   12.3906    7.0013   -8.1855 C   0  0  0  0  0  0  0  0  0  0  0  0
    1.5092    2.7412  -16.7395 C   0  0  0  0  0  0  0  0  0  0  0  0
    3.6496    5.0300   -7.7690 C   0  0  0  0  0  0  0  0  0  0  0  0
    0.4160    3.3070   -9.0566 C   0  0  0  0  0  0  0  0  0  0  0  0
    2.2316    4.9367   -8.2760 C   0  0  0  0  0  0  0  0  0  0  0  0
    1.8603    3.4955   -8.5332 C   0  0  0  0  0  0  0  0  0  0  0  0
   13.8709    7.5809   -5.8580 C   0  0  0  0  0  0  0  0  0  0  0  0
    6.1433    2.4288  -18.4738 C   0  0  0  0  0  0  0  0  0  0  0  0
   10.5087    7.8979   -1.7397 C   0  0  0  0  0  0  0  0  0  0  0  0
    8.0931    1.0985  -17.0191 C   0  0  0  0  0  0  0  0  0  0  0  0
   12.2160   10.8527   -4.7967 C   0  0  0  0  0  0  0  0  0  0  0  0
    1.6820    8.6737  -12.3462 C   0  0  0  0  0  0  0  0  0  0  0  0
   12.9172   14.7571  -10.1455 C   0  0  0  0  0  0  0  0  0  0  0  0
    4.3359    4.5503  -17.0731 C   0  0  0  0  0  0  0  0  0  0  0  0
   14.8873   13.6826   -8.0653 C   0  0  0  0  0  0  0  0  0  0  0  0
    3.2082    8.9709  -14.6029 C   0  0  0  0  0  0  0  0  0  0  0  0
  1 37  1  0  0  0  0
  1 59  1  0  0  0  0
  2 38  1  0  0  0  0
  2 60  1  0  0  0  0
  3 43  1  0  0  0  0
  3 61  1  0  0  0  0
  4 44  1  0  0  0  0
  4 62  1  0  0  0  0
  5 45  1  0  0  0  0
  5 65  1  0  0  0  0
  6 46  1  0  0  0  0
  6 66  1  0  0  0  0
  7 47  1  0  0  0  0
  7 67  1  0  0  0  0
  8 48  1  0  0  0  0
  8 68  1  0  0  0  0
  9 53  1  0  0  0  0
  9 69  1  0  0  0  0
 10 54  1  0  0  0  0
 10 70  1  0  0  0  0
 11 55  1  0  0  0  0
 11 71  1  0  0  0  0
 12 56  1  0  0  0  0
 12 72  1  0  0  0  0
 13 57  1  0  0  0  0
 13 73  1  0  0  0  0
 14 58  1  0  0  0  0
 14 74  1  0  0  0  0
 15 61  2  0  0  0  0
 16 62  2  0  0  0  0
 17 19  1  0  0  0  0
 17 21  1  0  0  0  0
 17 23  1  0  0  0  0
 17 29  1  0  0  0  0
 18 20  1  0  0  0  0
 18 22  1  0  0  0  0
 18 24  1  0  0  0  0
 18 30  1  0  0  0  0
 19 25  1  0  0  0  0
 19 31  1  0  0  0  0
 20 26  1  0  0  0  0
 20 32  1  0  0  0  0
 21 27  1  0  0  0  0
 22 28  1  0  0  0  0
 23 35  1  0  0  0  0
 24 36  1  0  0  0  0
 25 33  2  0  0  0  0
 25 37  1  0  0  0  0
 26 34  2  0  0  0  0
 26 38  1  0  0  0  0
 27 33  1  0  0  0  0
 28 34  1  0  0  0  0
 31 39  1  0  0  0  0
 32 40  1  0  0  0  0
 33 41  1  0  0  0  0
 34 42  1  0  0  0  0
 35 43  1  0  0  0  0
 36 44  1  0  0  0  0
 37 45  2  0  0  0  0
 38 46  2  0  0  0  0
 39 49  2  0  0  0  0
 39 51  1  0  0  0  0
 40 50  2  0  0  0  0
 40 52  1  0  0  0  0
 41 47  2  0  0  0  0
 42 48  2  0  0  0  0
 45 47  1  0  0  0  0
 46 48  1  0  0  0  0
 49 55  1  0  0  0  0
 50 56  1  0  0  0  0
 51 53  2  0  0  0  0
 52 54  2  0  0  0  0
 53 57  1  0  0  0  0
 54 58  1  0  0  0  0
 55 57  2  0  0  0  0
 56 58  2  0  0  0  0
 61 63  1  0  0  0  0
 62 64  1  0  0  0  0
 63 64  1  0  0  0  0
M  CHG  2  17   1  18   1
M  END
