590
 OpenBabel10141417493D

 33 37  0  0  1  0  0  0  0  0999 V2000
   -4.3604    3.5108   -0.0203 O   0  0  0  0  0  0  0  0  0  0  0  0
   -1.7038    4.3021   -0.8427 O   0  0  0  0  0  0  0  0  0  0  0  0
   -2.8949    0.4086    0.0470 O   0  0  0  0  0  0  0  0  0  0  0  0
   -9.4586   -5.3461   -6.3854 O   0  0  0  0  0  0  0  0  0  0  0  0
  -12.0555   -4.0789   -6.6492 O   0  0  0  0  0  0  0  0  0  0  0  0
   -5.0028    0.6644   -0.8499 N   0  0  0  0  0  0  0  0  0  0  0  0
   -7.5317   -0.4877   -1.6346 N   0  0  0  0  0  0  0  0  0  0  0  0
   -8.3217   -2.1258   -3.1173 N   0  0  0  0  0  0  0  0  0  0  0  0
   -9.6823   -0.2840   -2.5992 N   0  0  0  0  0  0  0  0  0  0  0  0
  -11.8111   -0.0219   -3.4642 N   0  0  0  0  0  0  0  0  0  0  0  0
   -5.2807   -0.7591   -0.6460 C   0  0  0  0  0  0  0  0  0  0  0  0
   -6.2235    1.5049   -0.9504 C   0  0  0  0  0  0  0  0  0  0  0  0
   -6.3033   -1.3082   -1.6505 C   0  0  0  0  0  0  0  0  0  0  0  0
   -7.2899    0.9364   -1.8975 C   0  0  0  0  0  0  0  0  0  0  0  0
   -3.7557    1.1557   -0.4420 C   0  0  0  0  0  0  0  0  0  0  0  0
   -3.4808    2.6334   -0.7346 C   0  0  3  0  0  0  0  0  0  0  0  0
   -8.5404   -0.9774   -2.4729 C   0  0  0  0  0  0  0  0  0  0  0  0
   -2.0363    2.9872   -0.3735 C   0  0  0  0  0  0  0  0  0  0  0  0
   -3.9853    4.8214   -0.1645 C   0  0  0  0  0  0  0  0  0  0  0  0
   -9.2459   -2.5742   -3.9565 C   0  0  0  0  0  0  0  0  0  0  0  0
   -2.6979    5.2030   -0.5565 C   0  0  0  0  0  0  0  0  0  0  0  0
  -10.4638   -1.9416   -4.1655 C   0  0  0  0  0  0  0  0  0  0  0  0
  -10.6324   -0.7772   -3.4079 C   0  0  0  0  0  0  0  0  0  0  0  0
   -8.9375   -3.7205   -4.6627 C   0  0  0  0  0  0  0  0  0  0  0  0
   -4.9468    5.7871    0.1224 C   0  0  0  0  0  0  0  0  0  0  0  0
  -11.3773   -2.5054   -5.0902 C   0  0  0  0  0  0  0  0  0  0  0  0
   -2.3784    6.5527   -0.6757 C   0  0  0  0  0  0  0  0  0  0  0  0
   -9.8047   -4.2733   -5.6083 C   0  0  0  0  0  0  0  0  0  0  0  0
  -11.0602   -3.6751   -5.7969 C   0  0  0  0  0  0  0  0  0  0  0  0
   -4.6220    7.1399    0.0161 C   0  0  0  0  0  0  0  0  0  0  0  0
   -3.3384    7.5222   -0.3794 C   0  0  0  0  0  0  0  0  0  0  0  0
   -8.1738   -5.9289   -6.1911 C   0  0  0  0  0  0  0  0  0  0  0  0
  -12.0800   -5.4570   -7.0031 C   0  0  0  0  0  0  0  0  0  0  0  0
  1 16  1  0  0  0  0
  1 19  1  0  0  0  0
  2 18  1  0  0  0  0
  2 21  1  0  0  0  0
  3 15  2  0  0  0  0
  4 28  1  0  0  0  0
  4 32  1  0  0  0  0
  5 29  1  0  0  0  0
  5 33  1  0  0  0  0
  6 11  1  0  0  0  0
  6 12  1  0  0  0  0
  6 15  1  0  0  0  0
  7 13  1  0  0  0  0
  7 14  1  0  0  0  0
  7 17  1  0  0  0  0
  8 17  2  0  0  0  0
  8 20  1  0  0  0  0
  9 17  1  0  0  0  0
  9 23  2  0  0  0  0
 10 23  1  0  0  0  0
 11 13  1  0  0  0  0
 12 14  1  0  0  0  0
 15 16  1  0  0  0  0
 16 18  1  0  0  0  0
 19 21  1  0  0  0  0
 19 25  2  0  0  0  0
 20 22  1  0  0  0  0
 20 24  2  0  0  0  0
 21 27  2  0  0  0  0
 22 23  1  0  0  0  0
 22 26  2  0  0  0  0
 24 28  1  0  0  0  0
 25 30  1  0  0  0  0
 26 29  1  0  0  0  0
 27 31  1  0  0  0  0
 28 29  2  0  0  0  0
 30 31  2  0  0  0  0
M  END
