561
 OpenBabel10141417503D

 28 31  0  0  1  0  0  0  0  0999 V2000
   -0.6897   -0.1477   -1.8968 O   0  0  0  0  0  0  0  0  0  0  0  0
    5.8172    5.6425    1.7991 O   0  0  0  0  0  0  0  0  0  0  0  0
    1.3540   -0.1467   -0.8155 N   0  0  0  0  0  0  0  0  0  0  0  0
    4.2879    3.2241    1.0265 N   0  0  0  0  0  0  0  0  0  0  0  0
    2.0005    2.1141   -0.8893 C   0  0  3  0  0  0  0  0  0  0  0  0
    0.6440    1.9725   -1.7420 C   0  0  0  0  0  0  0  0  0  0  0  0
    2.5151    0.6894   -0.7270 C   0  0  0  0  0  0  0  0  0  0  0  0
    3.1233    3.0896   -1.3236 C   0  0  0  0  0  0  0  0  0  0  0  0
    0.3176    0.4572   -1.5067 C   0  0  0  0  0  0  0  0  0  0  0  0
   -0.4208    2.8921   -1.0531 C   0  0  0  0  0  0  0  0  0  0  0  0
    0.7527    2.1654   -3.2772 C   0  0  0  0  0  0  0  0  0  0  0  0
    4.4065    3.0861   -0.4381 C   0  0  0  0  0  0  0  0  0  0  0  0
    1.4293   -1.5760   -0.5624 C   0  0  0  0  0  0  0  0  0  0  0  0
   -0.2101    4.2831   -0.9759 C   0  0  0  0  0  0  0  0  0  0  0  0
    1.8234    1.6133   -4.0068 C   0  0  0  0  0  0  0  0  0  0  0  0
   -1.5866    2.3904   -0.4381 C   0  0  0  0  0  0  0  0  0  0  0  0
   -0.2609    2.7947   -4.0279 C   0  0  0  0  0  0  0  0  0  0  0  0
    3.6450    4.4704    1.4948 C   0  0  0  0  0  0  0  0  0  0  0  0
    5.6326    3.1985    1.6730 C   0  0  0  0  0  0  0  0  0  0  0  0
    0.5398   -2.0033    0.5939 C   0  0  0  0  0  0  0  0  0  0  0  0
    4.4818    5.7479    1.2875 C   0  0  0  0  0  0  0  0  0  0  0  0
    6.4823    4.4485    1.3751 C   0  0  0  0  0  0  0  0  0  0  0  0
   -1.0818    5.1165   -0.2643 C   0  0  0  0  0  0  0  0  0  0  0  0
    1.9347    1.7706   -5.3922 C   0  0  0  0  0  0  0  0  0  0  0  0
   -2.4668    3.2268    0.2597 C   0  0  0  0  0  0  0  0  0  0  0  0
   -0.1588    2.9427   -5.4182 C   0  0  0  0  0  0  0  0  0  0  0  0
   -2.2060    4.5874    0.3607 C   0  0  0  0  0  0  0  0  0  0  0  0
    0.9487    2.4475   -6.0975 C   0  0  0  0  0  0  0  0  0  0  0  0
  1  9  2  0  0  0  0
  2 21  1  0  0  0  0
  2 22  1  0  0  0  0
  3  7  1  0  0  0  0
  3  9  1  0  0  0  0
  3 13  1  0  0  0  0
  4 12  1  0  0  0  0
  4 18  1  0  0  0  0
  4 19  1  0  0  0  0
  5  6  1  0  0  0  0
  5  7  1  0  0  0  0
  5  8  1  0  0  0  0
  6  9  1  0  0  0  0
  6 10  1  0  0  0  0
  6 11  1  0  0  0  0
  8 12  1  0  0  0  0
 10 14  2  0  0  0  0
 10 16  1  0  0  0  0
 11 15  2  0  0  0  0
 11 17  1  0  0  0  0
 13 20  1  0  0  0  0
 14 23  1  0  0  0  0
 15 24  1  0  0  0  0
 16 25  2  0  0  0  0
 17 26  2  0  0  0  0
 18 21  1  0  0  0  0
 19 22  1  0  0  0  0
 23 27  2  0  0  0  0
 24 28  2  0  0  0  0
 25 27  1  0  0  0  0
 26 28  1  0  0  0  0
M  END
