
 OpenBabel10141417553D

 21 23  0  0  0  0  0  0  0  0999 V2000
    0.0180   -0.9267   -0.6836 C   0  0  0  0  0  0  0  0  0  0  0  0
   -1.2045   -0.5201    0.0476 C   0  0  0  0  0  0  0  0  0  0  0  0
    1.3651   -0.4447   -0.2562 C   0  0  0  0  0  0  0  0  0  0  0  0
   -1.4808    0.8536    0.1384 C   0  0  0  0  0  0  0  0  0  0  0  0
   -2.0604   -1.4429    0.6594 C   0  0  0  0  0  0  0  0  0  0  0  0
    1.6093    0.8641    0.2035 C   0  0  0  0  0  0  0  0  0  0  0  0
    2.4304   -1.3705   -0.2306 C   0  0  0  0  0  0  0  0  0  0  0  0
   -1.3143   -2.1572   -2.5175 C   0  0  0  0  0  0  0  0  0  0  0  0
   -0.4954    1.8334   -0.4450 C   0  0  0  0  0  0  0  0  0  0  0  0
   -2.6448    1.2844    0.7896 C   0  0  0  0  0  0  0  0  0  0  0  0
   -3.2190   -1.0060    1.3038 C   0  0  0  0  0  0  0  0  0  0  0  0
    0.7076    1.8934    0.3222 O   0  0  0  0  0  0  0  0  0  0  0  0
    2.8936    1.2168    0.6480 C   0  0  0  0  0  0  0  0  0  0  0  0
    3.7065   -1.0028    0.2021 C   0  0  0  0  0  0  0  0  0  0  0  0
   -2.0445   -1.1766   -3.4543 C   0  0  0  0  0  0  0  0  0  0  0  0
   -3.5161    0.3546    1.3583 C   0  0  0  0  0  0  0  0  0  0  0  0
    3.9394    0.2948    0.6376 C   0  0  0  0  0  0  0  0  0  0  0  0
   -3.2090   -1.7817   -4.1411 N   0  0  0  0  0  0  0  0  0  0  0  0
   -4.2269   -2.2451   -3.1946 C   0  0  0  0  0  0  0  0  0  0  0  0
   -3.8095   -0.8143   -5.0650 C   0  0  0  0  0  0  0  0  0  0  0  0
   -0.0796   -1.5864   -1.8590 C   0  0  0  0  0  0  0  0  0  0  0  0
  1  2  1  0  0  0  0
  1  3  1  0  0  0  0
  1 21  2  3  0  0  0
  2  4  1  0  0  0  0
  2  5  2  0  0  0  0
  3  6  1  0  0  0  0
  3  7  2  0  0  0  0
  4  9  1  0  0  0  0
  4 10  2  0  0  0  0
  5 11  1  0  0  0  0
  6 12  1  0  0  0  0
  6 13  2  0  0  0  0
  7 14  1  0  0  0  0
  8 15  1  0  0  0  0
  9 12  1  0  0  0  0
 10 16  1  0  0  0  0
 11 16  2  0  0  0  0
 13 17  1  0  0  0  0
 14 17  2  0  0  0  0
 15 18  1  0  0  0  0
 18 19  1  0  0  0  0
 18 20  1  0  0  0  0
 21  8  1  0  0  0  0
M  END
