997
 OpenBabel10141418193D

 39 43  0  0  1  0  0  0  0  0999 V2000
    1.1256   -2.8509   -1.3445 O   0  0  0  0  0  0  0  0  0  0  0  0
    3.0559   -1.5763   -1.9826 O   0  0  0  0  0  0  0  0  0  0  0  0
   -1.1398   -4.4436   -0.9749 O   0  0  0  0  0  0  0  0  0  0  0  0
    2.1652   -0.5004   -5.1486 O   0  0  0  0  0  0  0  0  0  0  0  0
    3.3484   -1.4687    1.2994 O   0  0  0  0  0  0  0  0  0  0  0  0
    1.9498   -6.8025    1.6047 O   0  0  0  0  0  0  0  0  0  0  0  0
   -2.6139   -3.5532    2.1814 O   0  0  0  0  0  0  0  0  0  0  0  0
   -3.4413   -5.8508   -0.2317 O   0  0  0  0  0  0  0  0  0  0  0  0
    5.7747   -2.3194    2.2245 O   0  0  0  0  0  0  0  0  0  0  0  0
    4.5478   -7.2641    1.8644 O   0  0  0  0  0  0  0  0  0  0  0  0
    7.6051   -2.4787   -0.0406 O   0  0  0  0  0  0  0  0  0  0  0  0
    1.4126   -2.9206   -5.5817 N   0  0  0  0  0  0  0  0  0  0  0  0
    0.9612   -2.3971    0.0163 C   0  0  1  0  0  0  0  0  0  0  0  0
   -1.0327   -3.9789    0.3799 C   0  0  2  0  0  0  0  0  0  0  0  0
   -0.5294   -2.5195    0.3607 C   0  0  0  0  0  0  0  0  0  0  0  0
   -0.1084   -4.9273    1.1829 C   0  0  0  0  0  0  0  0  0  0  0  0
    1.7736   -3.2287    0.9832 C   0  0  0  0  0  0  0  0  0  0  0  0
    1.3578   -4.5454    1.2505 C   0  0  0  0  0  0  0  0  0  0  0  0
    2.4336   -2.8469   -1.9132 C   0  0  2  0  0  0  0  0  0  0  0  0
    2.3749   -3.3746   -3.3463 C   0  0  0  0  0  0  0  0  0  0  0  0
    1.3622   -2.5567   -4.1424 C   0  0  1  0  0  0  0  0  0  0  0  0
    1.5526   -1.0316   -3.9569 C   0  0  1  0  0  0  0  0  0  0  0  0
    2.2935   -0.5789   -2.6687 C   0  0  2  0  0  0  0  0  0  0  0  0
    3.0512   -2.8009    1.3694 C   0  0  0  0  0  0  0  0  0  0  0  0
   -2.4343   -3.9904    1.0398 C   0  0  0  0  0  0  0  0  0  0  0  0
    2.3361   -5.4881    1.5836 C   0  0  0  0  0  0  0  0  0  0  0  0
    4.0171   -3.7483    1.6838 C   0  0  0  0  0  0  0  0  0  0  0  0
    3.6766   -5.0970    1.7107 C   0  0  0  0  0  0  0  0  0  0  0  0
    3.2494    0.5833   -2.9343 C   0  0  0  0  0  0  0  0  0  0  0  0
   -3.6123   -4.5181    0.2220 C   0  0  0  0  0  0  0  0  0  0  0  0
    5.4413   -3.3510    1.6886 C   0  0  0  0  0  0  0  0  0  0  0  0
    4.7651   -6.0879    1.6242 C   0  0  0  0  0  0  0  0  0  0  0  0
    6.3495   -4.2664    0.9566 C   0  0  0  0  0  0  0  0  0  0  0  0
    6.0359   -5.6336    1.0060 C   0  0  0  0  0  0  0  0  0  0  0  0
    7.4023   -3.8244    0.1340 C   0  0  0  0  0  0  0  0  0  0  0  0
    6.8007   -6.5707    0.3083 C   0  0  0  0  0  0  0  0  0  0  0  0
    8.1750   -4.7817   -0.5416 C   0  0  0  0  0  0  0  0  0  0  0  0
    7.8741   -6.1405   -0.4603 C   0  0  0  0  0  0  0  0  0  0  0  0
    8.1668   -2.1056   -1.3052 C   0  0  0  0  0  0  0  0  0  0  0  0
  2 19  1  0  0  0  0
  2 23  1  0  0  0  0
  5 24  1  0  0  0  0
  6 26  1  0  0  0  0
  7 25  2  0  0  0  0
  8 30  1  0  0  0  0
  9 31  2  0  0  0  0
 10 32  2  0  0  0  0
 11 35  1  0  0  0  0
 11 39  1  0  0  0  0
 13 15  1  0  0  0  0
 13 17  1  0  0  0  0
 13  1  1  6  0  0  0
 14 15  1  0  0  0  0
 14 16  1  0  0  0  0
 14 25  1  1  0  0  0
 14  3  1  0  0  0  0
 16 18  1  0  0  0  0
 17 18  2  0  0  0  0
 17 24  1  0  0  0  0
 18 26  1  0  0  0  0
 19  1  1  6  0  0  0
 19 20  1  0  0  0  0
 20 21  1  0  0  0  0
 21 22  1  0  0  0  0
 21 12  1  6  0  0  0
 22 23  1  0  0  0  0
 22  4  1  6  0  0  0
 23 29  1  6  0  0  0
 24 27  2  0  0  0  0
 25 30  1  0  0  0  0
 26 28  2  0  0  0  0
 27 28  1  0  0  0  0
 27 31  1  0  0  0  0
 28 32  1  0  0  0  0
 31 33  1  0  0  0  0
 32 34  1  0  0  0  0
 33 34  2  0  0  0  0
 33 35  1  0  0  0  0
 34 36  1  0  0  0  0
 35 37  2  0  0  0  0
 36 38  2  0  0  0  0
 37 38  1  0  0  0  0
M  END
