
 OpenBabel10141417543D

 39 41  0  0  0  0  0  0  0  0999 V2000
   -1.2898   -0.5367   -5.9251 S   0  0  0  0  0  0  0  0  0  0  0  0
    2.6874   -1.2747   -1.3529 O   0  0  0  0  0  0  0  0  0  0  0  0
   -5.1216    3.9234    0.1957 O   0  0  0  0  0  0  0  0  0  0  0  0
    0.9662    2.1559    0.4277 O   0  0  0  0  0  0  0  0  0  0  0  0
   -0.7531    0.6320   -5.2700 O   0  0  0  0  0  0  0  0  0  0  0  0
   -2.6018   -0.5099   -6.5366 O   0  0  0  0  0  0  0  0  0  0  0  0
   -8.3755    1.6760    2.9449 N   0  0  0  0  0  0  0  0  0  0  0  0
   -1.3342   -1.7816   -4.8351 N   0  0  0  0  0  0  0  0  0  0  0  0
   -8.9984    1.3942    4.2620 C   0  0  0  0  0  0  0  0  0  0  0  0
   -7.5799    0.5718    2.3468 C   0  0  0  0  0  0  0  0  0  0  0  0
   -7.8827    3.0734    2.9245 C   0  0  0  0  0  0  0  0  0  0  0  0
  -10.0888    0.3082    4.2579 C   0  0  0  0  0  0  0  0  0  0  0  0
   -6.3990   -0.1123    3.1606 C   0  0  0  0  0  0  0  0  0  0  0  0
   -7.1554    3.7606    1.7256 C   0  0  0  0  0  0  0  0  0  0  0  0
  -10.7178    0.0695    5.6452 C   0  0  0  0  0  0  0  0  0  0  0  0
   -5.6814   -1.3703    2.5251 C   0  0  0  0  0  0  0  0  0  0  0  0
   -5.7544    3.2312    1.3210 C   0  0  0  0  0  0  0  0  0  0  0  0
    2.2213   -0.3933   -0.4234 C   0  0  0  0  0  0  0  0  0  0  0  0
    0.9156    0.1008   -0.7984 C   0  0  0  0  0  0  0  0  0  0  0  0
    3.3071   -0.2922    0.6234 C   0  0  0  0  0  0  0  0  0  0  0  0
    0.5330   -0.9128   -1.8089 C   0  0  0  0  0  0  0  0  0  0  0  0
    3.2271   -1.4248    1.6903 C   0  0  0  0  0  0  0  0  0  0  0  0
   -9.6908   -0.4126    6.6592 C   0  0  0  0  0  0  0  0  0  0  0  0
   -4.5707   -2.1509    3.3016 C   0  0  0  0  0  0  0  0  0  0  0  0
    1.6966   -1.5872   -2.1804 C   0  0  0  0  0  0  0  0  0  0  0  0
    0.2564    1.4473   -0.2992 C   0  0  0  0  0  0  0  0  0  0  0  0
    3.2677   -2.8705    1.1481 C   0  0  0  0  0  0  0  0  0  0  0  0
   -0.6063   -1.3182   -2.5289 C   0  0  0  0  0  0  0  0  0  0  0  0
   -1.2059    2.1329   -0.5642 C   0  0  0  0  0  0  0  0  0  0  0  0
   -0.4064   -1.9444   -3.7872 C   0  0  0  0  0  0  0  0  0  0  0  0
   -3.8974    3.3711   -0.1731 C   0  0  0  0  0  0  0  0  0  0  0  0
    1.8662   -2.4722   -3.2481 C   0  0  0  0  0  0  0  0  0  0  0  0
    0.7922   -2.5637   -4.1130 C   0  0  0  0  0  0  0  0  0  0  0  0
   -2.4064    1.4387   -0.7426 C   0  0  0  0  0  0  0  0  0  0  0  0
   -1.4395    3.5509   -0.4027 C   0  0  0  0  0  0  0  0  0  0  0  0
   -3.7162    2.0396   -0.5520 C   0  0  0  0  0  0  0  0  0  0  0  0
   -2.7561    4.1599   -0.2464 C   0  0  0  0  0  0  0  0  0  0  0  0
    3.1210   -3.9110    2.2557 C   0  0  0  0  0  0  0  0  0  0  0  0
   -0.1612   -0.9834   -7.2677 C   0  0  0  0  0  0  0  0  0  0  0  0
  1  5  2  0  0  0  0
  1  6  2  0  0  0  0
  1  8  1  0  0  0  0
  1 39  1  0  0  0  0
  2 18  1  0  0  0  0
  2 25  1  0  0  0  0
  3 17  1  0  0  0  0
  3 31  1  0  0  0  0
  4 26  2  0  0  0  0
  7  9  1  0  0  0  0
  7 10  1  0  0  0  0
  7 11  1  0  0  0  0
  8 30  1  0  0  0  0
  9 12  1  0  0  0  0
 10 13  1  0  0  0  0
 11 14  1  0  0  0  0
 12 15  1  0  0  0  0
 13 16  1  0  0  0  0
 14 17  1  0  0  0  0
 15 23  1  0  0  0  0
 16 24  1  0  0  0  0
 18 19  2  0  0  0  0
 18 20  1  0  0  0  0
 19 21  1  0  0  0  0
 19 26  1  0  0  0  0
 20 22  1  0  0  0  0
 21 25  2  0  0  0  0
 21 28  1  0  0  0  0
 22 27  1  0  0  0  0
 25 32  1  0  0  0  0
 26 29  1  0  0  0  0
 27 38  1  0  0  0  0
 28 30  2  0  0  0  0
 29 34  2  0  0  0  0
 29 35  1  0  0  0  0
 30 33  1  0  0  0  0
 31 36  2  0  0  0  0
 31 37  1  0  0  0  0
 32 33  2  0  0  0  0
 34 36  1  0  0  0  0
 35 37  2  0  0  0  0
M  END
