450
 OpenBabel10141417493D

 28 31  0  0  1  0  0  0  0  0999 V2000
    5.0806   -3.2520    3.7518 F   0  0  0  0  0  0  0  0  0  0  0  0
   15.0077   -1.7719   -6.1402 O   0  0  0  0  0  0  0  0  0  0  0  0
    8.0892   -4.8203   -1.5385 O   0  0  0  0  0  0  0  0  0  0  0  0
   12.3764   -2.1430   -1.7446 N   0  0  0  0  0  0  0  0  0  0  0  0
   15.5672   -3.3176   -4.3813 N   0  0  0  0  0  0  0  0  0  0  0  0
   16.7010   -3.3244   -6.3699 N   0  0  0  0  0  0  0  0  0  0  0  0
   13.3749   -1.1223   -2.1211 C   0  0  0  0  0  0  0  0  0  0  0  0
   14.1955   -1.4828   -3.3788 C   0  0  0  0  0  0  0  0  0  0  0  0
   13.0872   -3.4025   -1.4825 C   0  0  0  0  0  0  0  0  0  0  0  0
   14.6455   -2.9361   -3.4086 C   0  0  0  0  0  0  0  0  0  0  0  0
   11.3122   -2.2513   -2.7613 C   0  0  0  0  0  0  0  0  0  0  0  0
   14.1320   -3.7844   -2.4955 C   0  0  0  0  0  0  0  0  0  0  0  0
   10.1700   -3.2198   -2.4154 C   0  0  0  0  0  0  0  0  0  0  0  0
   16.5603   -4.3382   -4.3581 C   0  0  0  0  0  0  0  0  0  0  0  0
    9.4301   -2.8570   -1.1240 C   0  0  0  0  0  0  0  0  0  0  0  0
   15.6702   -2.6745   -5.6690 C   0  0  0  0  0  0  0  0  0  0  0  0
   17.2494   -4.3094   -5.5756 C   0  0  0  0  0  0  0  0  0  0  0  0
   16.9619   -5.2206   -3.3732 C   0  0  0  0  0  0  0  0  0  0  0  0
    8.3200   -3.8520   -0.8157 C   0  0  0  0  0  0  0  0  0  0  0  0
   18.3227   -5.1247   -5.8658 C   0  0  0  0  0  0  0  0  0  0  0  0
   18.0466   -6.0704   -3.6426 C   0  0  0  0  0  0  0  0  0  0  0  0
   18.7248   -6.0188   -4.8750 C   0  0  0  0  0  0  0  0  0  0  0  0
    7.4820   -3.6544    0.4102 C   0  0  0  0  0  0  0  0  0  0  0  0
    7.6286   -2.5461    1.2561 C   0  0  0  0  0  0  0  0  0  0  0  0
    6.5097   -4.6239    0.7140 C   0  0  0  0  0  0  0  0  0  0  0  0
    6.8120   -2.4139    2.3857 C   0  0  0  0  0  0  0  0  0  0  0  0
    5.6988   -4.4898    1.8437 C   0  0  0  0  0  0  0  0  0  0  0  0
    5.8573   -3.3850    2.6690 C   0  0  0  0  0  0  0  0  0  0  0  0
  1 28  1  0  0  0  0
  2 16  2  0  0  0  0
  3 19  2  0  0  0  0
  4  7  1  0  0  0  0
  4  9  1  0  0  0  0
  4 11  1  0  0  0  0
  5 10  1  0  0  0  0
  5 14  1  0  0  0  0
  5 16  1  0  0  0  0
  6 16  1  0  0  0  0
  6 17  1  0  0  0  0
  7  8  1  0  0  0  0
  8 10  1  0  0  0  0
  9 12  1  0  0  0  0
 10 12  2  0  0  0  0
 11 13  1  0  0  0  0
 13 15  1  0  0  0  0
 14 17  1  0  0  0  0
 14 18  2  0  0  0  0
 15 19  1  0  0  0  0
 17 20  2  0  0  0  0
 18 21  1  0  0  0  0
 19 23  1  0  0  0  0
 20 22  1  0  0  0  0
 21 22  2  0  0  0  0
 23 24  2  0  0  0  0
 23 25  1  0  0  0  0
 24 26  1  0  0  0  0
 25 27  2  0  0  0  0
 26 28  2  0  0  0  0
 27 28  1  0  0  0  0
M  END
