1395
 OpenBabel10141417533D

 27 33  0  0  1  0  0  0  0  0999 V2000
    1.1523    0.4319   -1.1405 O   0  0  0  0  0  0  0  0  0  0  0  0
    0.2591    2.5289   -1.0424 O   0  0  0  0  0  0  0  0  0  0  0  0
    3.1433   -5.9561    3.9900 O   0  0  0  0  0  0  0  0  0  0  0  0
    2.8309   -1.5661   -1.0218 C   0  0  2  0  0  0  0  0  0  0  0  0
    3.1813   -1.2374   -2.4317 C   0  0  1  0  0  0  0  0  0  0  0  0
    1.7958   -0.9475   -3.0415 C   0  0  1  0  0  0  0  0  0  0  0  0
    1.4154   -2.2278   -1.0830 C   0  0  1  0  0  0  0  0  0  0  0  0
    3.6589   -1.5966    0.2454 C   0  0  2  0  0  0  0  0  0  0  0  0
    0.7969   -0.8850   -1.6734 C   0  0  1  0  0  0  0  0  0  0  0  0
    2.7711   -2.1352   -3.5144 C   0  0  0  0  0  0  0  0  0  0  0  0
    3.0530   -0.7646    1.4594 C   0  0  2  0  0  0  0  0  0  0  0  0
    3.9813   -2.9962    0.6640 C   0  0  1  0  0  0  0  0  0  0  0  0
    3.2032   -1.2814    2.9210 C   0  0  1  0  0  0  0  0  0  0  0  0
    1.3782   -3.3315   -0.0108 C   0  0  0  0  0  0  0  0  0  0  0  0
    1.8422   -1.0950    2.3065 C   0  0  0  0  0  0  0  0  0  0  0  0
    4.8761   -2.8791    1.9679 C   0  0  2  0  0  0  0  0  0  0  0  0
    2.6328   -3.7746    0.7878 C   0  0  0  0  0  0  0  0  0  0  0  0
   -0.7133   -0.8442   -1.5386 C   0  0  0  0  0  0  0  0  0  0  0  0
    3.8531   -2.6162    3.0601 C   0  0  0  0  0  0  0  0  0  0  0  0
    0.6112   -3.1658   -2.2099 C   0  0  0  0  0  0  0  0  0  0  0  0
    5.7682   -4.1047    2.2100 C   0  0  0  0  0  0  0  0  0  0  0  0
   -1.1144    0.5379   -1.0443 C   0  0  0  0  0  0  0  0  0  0  0  0
    5.9169   -1.6974    1.9464 C   0  0  0  0  0  0  0  0  0  0  0  0
    0.1363    1.2879   -1.1281 C   0  0  0  0  0  0  0  0  0  0  0  0
    3.4221   -3.6248    3.8451 C   0  0  0  0  0  0  0  0  0  0  0  0
    5.0995   -5.3222    2.7913 C   0  0  0  0  0  0  0  0  0  0  0  0
    3.8509   -5.0326    3.5860 C   0  0  0  0  0  0  0  0  0  0  0  0
  1 24  1  0  0  0  0
  2 24  2  0  0  0  0
  3 27  2  0  0  0  0
  4  5  1  1  0  0  0
  4  7  1  0  0  0  0
  5  6  1  0  0  0  0
  5 10  1  1  0  0  0
  6  9  1  0  0  0  0
  6 10  1  1  0  0  0
  7  9  1  0  0  0  0
  7 14  1  0  0  0  0
  7 20  1  1  0  0  0
  8  4  1  1  0  0  0
  8 11  1  0  0  0  0
  8 12  1  0  0  0  0
  9  1  1  1  0  0  0
  9 18  1  0  0  0  0
 11 13  1  0  0  0  0
 11 15  1  6  0  0  0
 12 16  1  0  0  0  0
 12 17  1  1  0  0  0
 13 15  1  6  0  0  0
 13 19  1  0  0  0  0
 14 17  1  0  0  0  0
 16 19  1  0  0  0  0
 16 21  1  0  0  0  0
 16 23  1  1  0  0  0
 18 22  1  0  0  0  0
 19 25  2  0  0  0  0
 21 26  1  0  0  0  0
 22 24  1  0  0  0  0
 25 27  1  0  0  0  0
 26 27  1  0  0  0  0
M  END
