1712095
 OpenBabel10141417493D

 29 31  0  0  0  0  0  0  0  0999 V2000
    0.6413   -1.3213    1.4386 O   0  0  0  0  0  0  0  0  0  0  0  0
    0.0507   -0.4392   -1.3006 O   0  0  0  0  0  0  0  0  0  0  0  0
   -2.4586   -5.9714   -8.0845 O   0  0  0  0  0  0  0  0  0  0  0  0
    0.2292   -7.4076   -8.7918 O   0  0  0  0  0  0  0  0  0  0  0  0
    0.6380   -6.0500   -2.4985 N   0  0  0  0  0  0  0  0  0  0  0  0
    0.5129   -5.8913   -0.0508 C   0  0  0  0  0  0  0  0  0  0  0  0
    0.0817   -4.4593   -0.3034 C   0  0  0  0  0  0  0  0  0  0  0  0
   -0.3022   -4.0433   -1.5857 C   0  0  0  0  0  0  0  0  0  0  0  0
    0.3770   -6.8010   -1.2788 C   0  0  0  0  0  0  0  0  0  0  0  0
   -0.1217   -4.9398   -2.7611 C   0  0  0  0  0  0  0  0  0  0  0  0
    0.2550   -3.5007    0.7081 C   0  0  0  0  0  0  0  0  0  0  0  0
   -0.5750   -2.6951   -1.7948 C   0  0  0  0  0  0  0  0  0  0  0  0
    0.2180   -2.1288    0.4031 C   0  0  0  0  0  0  0  0  0  0  0  0
   -0.1322   -1.7310   -0.8982 C   0  0  0  0  0  0  0  0  0  0  0  0
   -0.5434   -4.6265   -3.9815 C   0  0  0  0  0  0  0  0  0  0  0  0
   -0.2880   -5.3891   -5.1984 C   0  0  0  0  0  0  0  0  0  0  0  0
   -1.2631   -5.2671   -6.1606 C   0  0  0  0  0  0  0  0  0  0  0  0
    0.8196   -6.1556   -5.4819 C   0  0  0  0  0  0  0  0  0  0  0  0
   -1.3060   -6.0257   -7.3353 C   0  0  0  0  0  0  0  0  0  0  0  0
    0.1103    0.0033    1.4393 C   0  0  0  0  0  0  0  0  0  0  0  0
   -0.0155   -0.0684   -2.6829 C   0  0  0  0  0  0  0  0  0  0  0  0
   -0.1556   -6.7594   -7.6565 C   0  0  0  0  0  0  0  0  0  0  0  0
    0.8897   -6.8191   -6.7081 C   0  0  0  0  0  0  0  0  0  0  0  0
    0.6137    0.8096    2.6276 C   0  0  0  0  0  0  0  0  0  0  0  0
   -1.0406    1.0393   -2.7858 C   0  0  0  0  0  0  0  0  0  0  0  0
   -3.6743   -5.6816   -7.3432 C   0  0  0  0  0  0  0  0  0  0  0  0
   -0.6576   -7.8062   -9.8167 C   0  0  0  0  0  0  0  0  0  0  0  0
   -4.2763   -6.9495   -6.7751 C   0  0  0  0  0  0  0  0  0  0  0  0
   -1.0665   -6.6920  -10.7549 C   0  0  0  0  0  0  0  0  0  0  0  0
  1 13  1  0  0  0  0
  1 20  1  0  0  0  0
  2 14  1  0  0  0  0
  2 21  1  0  0  0  0
  3 19  1  0  0  0  0
  3 26  1  0  0  0  0
  4 22  1  0  0  0  0
  4 27  1  0  0  0  0
  5  9  1  0  0  0  0
  5 10  1  0  0  0  0
  6  7  1  0  0  0  0
  6  9  1  0  0  0  0
  7  8  1  0  0  0  0
  7 11  2  0  0  0  0
  8 10  1  0  0  0  0
  8 12  2  0  0  0  0
 10 15  2  0  0  0  0
 11 13  1  0  0  0  0
 12 14  1  0  0  0  0
 13 14  2  0  0  0  0
 15 16  1  0  0  0  0
 16 17  2  0  0  0  0
 16 18  1  0  0  0  0
 17 19  1  0  0  0  0
 18 23  2  0  0  0  0
 19 22  2  0  0  0  0
 20 24  1  0  0  0  0
 21 25  1  0  0  0  0
 22 23  1  0  0  0  0
 26 28  1  0  0  0  0
 27 29  1  0  0  0  0
M  END
