
 OpenBabel10141417493D

 15 15  0  0  1  0  0  0  0  0999 V2000
    2.6949   -0.2057    1.1769 O   0  0  0  0  0  0  0  0  0  0  0  0
   -0.2988   -2.0605   -1.6464 O   0  0  0  0  0  0  0  0  0  0  0  0
    3.9583   -3.1410   -3.8918 O   0  0  0  0  0  0  0  0  0  0  0  0
    4.6210   -5.1781   -2.2368 O   0  0  0  0  0  0  0  0  0  0  0  0
   -0.2719    0.1595   -2.1410 O   0  0  0  0  0  0  0  0  0  0  0  0
    0.1184   -1.7302    0.8804 N   0  0  0  0  0  0  0  0  0  0  0  0
    2.1416   -0.5213   -0.1118 C   0  0  2  0  0  0  0  0  0  0  0  0
    0.5976   -0.6022    0.0160 C   0  0  2  0  0  0  0  0  0  0  0  0
    2.8154   -1.7697   -0.6645 C   0  0  0  0  0  0  0  0  0  0  0  0
    3.0651   -1.8700   -2.0459 C   0  0  0  0  0  0  0  0  0  0  0  0
    3.1809   -2.8460    0.1690 C   0  0  0  0  0  0  0  0  0  0  0  0
   -0.0387   -0.7594   -1.3617 C   0  0  0  0  0  0  0  0  0  0  0  0
    3.6749   -3.0107   -2.5603 C   0  0  0  0  0  0  0  0  0  0  0  0
    3.7865   -3.9904   -0.3586 C   0  0  0  0  0  0  0  0  0  0  0  0
    4.0275   -4.0621   -1.7208 C   0  0  0  0  0  0  0  0  0  0  0  0
  2 12  1  0  0  0  0
  3 13  1  0  0  0  0
  4 15  1  0  0  0  0
  5 12  2  0  0  0  0
  7  9  1  1  0  0  0
  7  8  1  0  0  0  0
  7  1  1  0  0  0  0
  8  6  1  6  0  0  0
  8 12  1  0  0  0  0
  9 10  2  0  0  0  0
  9 11  1  0  0  0  0
 10 13  1  0  0  0  0
 11 14  2  0  0  0  0
 13 15  2  0  0  0  0
 14 15  1  0  0  0  0
M  END
