476
 OpenBabel10141417503D

 21 23  0  0  1  0  0  0  0  0999 V2000
   -0.0482   -0.2132   -1.4582 S   0  0  0  0  0  0  0  0  0  0  0  0
   -0.8034   -2.9334    1.2621 O   0  0  0  0  0  0  0  0  0  0  0  0
   -4.7591   -3.6753   -0.2390 N   0  0  0  0  0  0  0  0  0  0  0  0
   -1.1405   -2.3687   -0.0083 C   0  0  1  0  0  0  0  0  0  0  0  0
   -2.6804   -2.3540   -0.1133 C   0  0  0  0  0  0  0  0  0  0  0  0
   -3.3004   -3.7689   -0.0817 C   0  0  0  0  0  0  0  0  0  0  0  0
   -0.5398   -0.9704    0.0038 C   0  0  0  0  0  0  0  0  0  0  0  0
   -0.0220   -4.0574    1.3170 C   0  0  0  0  0  0  0  0  0  0  0  0
   -0.2758   -4.9153    2.4101 C   0  0  0  0  0  0  0  0  0  0  0  0
    0.5050   -6.0925    2.5543 C   0  0  0  0  0  0  0  0  0  0  0  0
   -0.2432   -0.1655    1.0934 C   0  0  0  0  0  0  0  0  0  0  0  0
    1.0126   -4.3302    0.4201 C   0  0  0  0  0  0  0  0  0  0  0  0
   -1.2748   -4.6581    3.3722 C   0  0  0  0  0  0  0  0  0  0  0  0
    1.5105   -6.3668    1.6185 C   0  0  0  0  0  0  0  0  0  0  0  0
    1.7710   -5.4930    0.5655 C   0  0  0  0  0  0  0  0  0  0  0  0
    0.2598   -6.9522    3.6346 C   0  0  0  0  0  0  0  0  0  0  0  0
    0.4410    1.0313    0.7335 C   0  0  0  0  0  0  0  0  0  0  0  0
    0.5966    1.1401   -0.6290 C   0  0  0  0  0  0  0  0  0  0  0  0
   -5.4038   -4.9835   -0.2821 C   0  0  0  0  0  0  0  0  0  0  0  0
   -1.5042   -5.5213    4.4399 C   0  0  0  0  0  0  0  0  0  0  0  0
   -0.7350   -6.6719    4.5721 C   0  0  0  0  0  0  0  0  0  0  0  0
  1  7  1  0  0  0  0
  1 18  1  0  0  0  0
  2  8  1  0  0  0  0
  3  6  1  0  0  0  0
  3 19  1  0  0  0  0
  4  2  1  1  0  0  0
  4  5  1  0  0  0  0
  4  7  1  0  0  0  0
  5  6  1  0  0  0  0
  7 11  2  0  0  0  0
  8  9  1  0  0  0  0
  8 12  2  0  0  0  0
  9 10  1  0  0  0  0
  9 13  2  0  0  0  0
 10 14  1  0  0  0  0
 10 16  2  0  0  0  0
 11 17  1  0  0  0  0
 12 15  1  0  0  0  0
 13 20  1  0  0  0  0
 14 15  2  0  0  0  0
 16 21  1  0  0  0  0
 17 18  2  0  0  0  0
 20 21  2  0  0  0  0
M  END
