
 OpenBabel10141417483D

 37 41  0  0  1  0  0  0  0  0999 V2000
    0.7513   -0.6101   -1.2730 C   0  0  0  0  0  0  0  0  0  0  0  0
    0.4471    0.8024   -0.9124 C   0  0  0  0  0  0  0  0  0  0  0  0
    0.9391    1.2378    0.2927 N   0  0  0  0  0  0  0  0  0  0  0  0
    1.3301   -1.4537   -0.4010 C   0  0  0  0  0  0  0  0  0  0  0  0
    1.7436   -1.0030    0.9942 C   0  0  1  0  0  0  0  0  0  0  0  0
    2.0297    0.5269    0.9311 C   0  0  1  0  0  0  0  0  0  0  0  0
    2.4055    1.1058    2.2915 C   0  0  0  0  0  0  0  0  0  0  0  0
    3.6317    0.3893    2.8666 C   0  0  0  0  0  0  0  0  0  0  0  0
    3.0248   -1.7300    1.5322 C   0  0  2  0  0  0  0  0  0  0  0  0
    3.4770   -1.1475    2.8973 C   0  0  2  0  0  0  0  0  0  0  0  0
    5.5924   -1.5741    1.0738 C   0  0  0  0  0  0  0  0  0  0  0  0
   -0.2081    1.5207   -1.6506 O   0  0  0  0  0  0  0  0  0  0  0  0
    4.1841   -1.7870    0.5060 C   0  0  0  0  0  0  0  0  0  0  0  0
    5.8465   -2.2481    2.4346 C   0  0  1  0  0  0  0  0  0  0  0  0
    4.6815   -1.9620    3.4437 C   0  0  1  0  0  0  0  0  0  0  0  0
    5.3419   -1.3491    4.6841 C   0  0  0  0  0  0  0  0  0  0  0  0
    6.6078   -0.6951    4.1593 C   0  0  0  0  0  0  0  0  0  0  0  0
    7.1323   -1.7375    3.1714 C   0  0  2  0  0  0  0  0  0  0  0  0
    5.9821   -3.7696    2.2149 C   0  0  0  0  0  0  0  0  0  0  0  0
    0.5321   -1.3332    1.9077 C   0  0  0  0  0  0  0  0  0  0  0  0
    8.2795   -1.2097    2.2964 C   0  0  0  0  0  0  0  0  0  0  0  0
    8.3689   -0.0226    2.0032 O   0  0  0  0  0  0  0  0  0  0  0  0
    9.1517   -2.2162    1.8978 N   0  0  0  0  0  0  0  0  0  0  0  0
   10.3383   -2.1076    1.1218 C   0  0  0  0  0  0  0  0  0  0  0  0
   10.8000   -0.8739    0.6339 C   0  0  0  0  0  0  0  0  0  0  0  0
   11.9484   -0.7749   -0.1765 C   0  0  0  0  0  0  0  0  0  0  0  0
   12.6611   -1.9354   -0.4886 C   0  0  0  0  0  0  0  0  0  0  0  0
   12.2366   -3.1648    0.0059 C   0  0  0  0  0  0  0  0  0  0  0  0
   11.0817   -3.2688    0.8132 C   0  0  0  0  0  0  0  0  0  0  0  0
   10.7163   -4.6540    1.2885 C   0  0  0  0  0  0  0  0  0  0  0  0
    9.5966   -4.6983    2.0695 F   0  0  0  0  0  0  0  0  0  0  0  0
   10.4766   -5.5112    0.2579 F   0  0  0  0  0  0  0  0  0  0  0  0
   11.7022   -5.2297    2.0312 F   0  0  0  0  0  0  0  0  0  0  0  0
   12.4093    0.5549   -0.7276 C   0  0  0  0  0  0  0  0  0  0  0  0
   11.6305    1.6082   -0.3622 F   0  0  0  0  0  0  0  0  0  0  0  0
   13.6746    0.8688   -0.3314 F   0  0  0  0  0  0  0  0  0  0  0  0
   12.4359    0.5641   -2.0901 F   0  0  0  0  0  0  0  0  0  0  0  0
  1  2  1  0  0  0  0
  1  4  2  0  0  0  0
  2  3  1  0  0  0  0
  2 12  2  0  0  0  0
  5  4  1  0  0  0  0
  5  6  1  0  0  0  0
  5 20  1  6  0  0  0
  5  9  1  0  0  0  0
  6  3  1  6  0  0  0
  6  7  1  0  0  0  0
  7  8  1  0  0  0  0
  9 13  1  6  0  0  0
  9 10  1  0  0  0  0
 10 15  1  0  0  0  0
 10  8  1  1  0  0  0
 11 13  1  0  0  0  0
 14 19  1  1  0  0  0
 14 11  1  0  0  0  0
 14 15  1  0  0  0  0
 15 16  1  1  0  0  0
 16 17  1  0  0  0  0
 17 18  1  0  0  0  0
 18 14  1  0  0  0  0
 18 21  1  6  0  0  0
 21 22  2  0  0  0  0
 21 23  1  0  0  0  0
 23 24  1  0  0  0  0
 24 25  2  0  0  0  0
 25 26  1  0  0  0  0
 26 27  2  0  0  0  0
 26 34  1  0  0  0  0
 27 28  1  0  0  0  0
 28 29  2  0  0  0  0
 29 24  1  0  0  0  0
 29 30  1  0  0  0  0
 30 31  1  0  0  0  0
 30 32  1  0  0  0  0
 30 33  1  0  0  0  0
 34 35  1  0  0  0  0
 34 36  1  0  0  0  0
 34 37  1  0  0  0  0
M  END
