645
 OpenBabel10141419053D

 21 22  0  0  0  0  0  0  0  0999 V2000
    0.9332    0.2647    0.0490 O   0  0  0  0  0  0  0  0  0  0  0  0
    5.0310   -0.3656    4.8572 O   0  0  0  0  0  0  0  0  0  0  0  0
    2.7201   -0.3401   -3.7597 N   0  0  0  0  0  0  0  0  0  0  0  0
    3.0539    1.0065   -4.2515 C   0  0  0  0  0  0  0  0  0  0  0  0
    1.9243   -1.0538   -4.7763 C   0  0  0  0  0  0  0  0  0  0  0  0
    1.8307    1.8425   -4.6321 C   0  0  0  0  0  0  0  0  0  0  0  0
    0.6515   -0.3126   -5.1984 C   0  0  0  0  0  0  0  0  0  0  0  0
    0.9615    1.1116   -5.6506 C   0  0  0  0  0  0  0  0  0  0  0  0
    2.0337   -0.3384   -2.4509 C   0  0  0  0  0  0  0  0  0  0  0  0
    2.9095    0.2180   -1.3289 C   0  0  0  0  0  0  0  0  0  0  0  0
    2.1649    0.1719   -0.0050 C   0  0  0  0  0  0  0  0  0  0  0  0
    2.9498    0.0650    1.2651 C   0  0  0  0  0  0  0  0  0  0  0  0
    2.2332    0.0203    2.4662 C   0  0  0  0  0  0  0  0  0  0  0  0
    4.3485    0.0054    1.3035 C   0  0  0  0  0  0  0  0  0  0  0  0
    5.3602   -1.7247    6.8083 C   0  0  0  0  0  0  0  0  0  0  0  0
    4.2912   -0.2001    3.7174 C   0  0  0  0  0  0  0  0  0  0  0  0
    2.9022   -0.0947    3.6870 C   0  0  0  0  0  0  0  0  0  0  0  0
    5.0138   -0.1272    2.5263 C   0  0  0  0  0  0  0  0  0  0  0  0
    4.3374   -1.0257    5.9205 C   0  0  0  0  0  0  0  0  0  0  0  0
    4.6734   -2.6866    7.7749 C   0  0  0  0  0  0  0  0  0  0  0  0
    5.6776   -3.4095    8.6549 C   0  0  0  0  0  0  0  0  0  0  0  0
  1 11  2  0  0  0  0
  2 16  1  0  0  0  0
  2 19  1  0  0  0  0
  3  4  1  0  0  0  0
  3  5  1  0  0  0  0
  3  9  1  0  0  0  0
  4  6  1  0  0  0  0
  5  7  1  0  0  0  0
  6  8  1  0  0  0  0
  7  8  1  0  0  0  0
  9 10  1  0  0  0  0
 10 11  1  0  0  0  0
 11 12  1  0  0  0  0
 12 13  2  0  0  0  0
 12 14  1  0  0  0  0
 13 17  1  0  0  0  0
 14 18  2  0  0  0  0
 15 19  1  0  0  0  0
 15 20  1  0  0  0  0
 16 17  2  0  0  0  0
 16 18  1  0  0  0  0
 20 21  1  0  0  0  0
M  END
