378
 OpenBabel10141417483D

 23 26  0  0  1  0  0  0  0  0999 V2000
    1.7717    0.3680   -0.8035 O   0  0  0  0  0  0  0  0  0  0  0  0
    4.2547   -1.4918    7.9740 O   0  0  0  0  0  0  0  0  0  0  0  0
    1.2245   -2.8950    0.0441 C   0  0  1  0  0  0  0  0  0  0  0  0
    2.3275   -3.7340    0.7753 C   0  0  2  0  0  0  0  0  0  0  0  0
    2.1822   -3.7858    2.3182 C   0  0  1  0  0  0  0  0  0  0  0  0
    1.8427   -2.4612    3.0602 C   0  0  1  0  0  0  0  0  0  0  0  0
    2.0207   -2.0328   -0.9832 C   0  0  2  0  0  0  0  0  0  0  0  0
    0.3575   -2.0911    1.0427 C   0  0  0  0  0  0  0  0  0  0  0  0
    3.6784   -3.2544    0.2261 C   0  0  0  0  0  0  0  0  0  0  0  0
    1.1631   -1.4250    2.1492 C   0  0  0  0  0  0  0  0  0  0  0  0
    2.9662   -1.8730    3.9970 C   0  0  1  0  0  0  0  0  0  0  0  0
    3.4227   -1.8976   -0.3953 C   0  0  0  0  0  0  0  0  0  0  0  0
    0.2770   -3.8436   -0.7230 C   0  0  0  0  0  0  0  0  0  0  0  0
    3.2530   -4.6002    2.9928 C   0  0  0  0  0  0  0  0  0  0  0  0
    3.6312   -2.9917    4.8044 C   0  0  0  0  0  0  0  0  0  0  0  0
    2.3017   -0.8619    4.9789 C   0  0  0  0  0  0  0  0  0  0  0  0
    1.4178   -0.6785   -1.3472 C   0  0  0  0  0  0  0  0  0  0  0  0
    4.0810   -1.1382    3.2203 C   0  0  0  0  0  0  0  0  0  0  0  0
    3.8721   -4.2494    4.1257 C   0  0  0  0  0  0  0  0  0  0  0  0
    3.2230   -0.4050    6.1033 C   0  0  0  0  0  0  0  0  0  0  0  0
    4.0209   -2.8504    6.0829 C   0  0  0  0  0  0  0  0  0  0  0  0
    3.8428   -1.5779    6.8188 C   0  0  0  0  0  0  0  0  0  0  0  0
    0.3233   -0.6701   -2.3839 C   0  0  0  0  0  0  0  0  0  0  0  0
  1 17  2  0  0  0  0
  2 22  2  0  0  0  0
  3  4  1  0  0  0  0
  3  7  1  0  0  0  0
  3  8  1  0  0  0  0
  3 13  1  1  0  0  0
  4  5  1  0  0  0  0
  4  9  1  1  0  0  0
  5  6  1  0  0  0  0
  5 14  1  6  0  0  0
  6 10  1  1  0  0  0
  6 11  1  0  0  0  0
  7 12  1  0  0  0  0
  7 17  1  1  0  0  0
  8 10  1  0  0  0  0
  9 12  1  0  0  0  0
 11 15  1  0  0  0  0
 11 16  1  0  0  0  0
 11 18  1  1  0  0  0
 14 19  2  0  0  0  0
 15 19  1  0  0  0  0
 15 21  2  0  0  0  0
 16 20  1  0  0  0  0
 17 23  1  0  0  0  0
 20 22  1  0  0  0  0
 21 22  1  0  0  0  0
M  END
