65781
 OpenBabel10141418013D

 26 28  0  0  1  0  0  0  0  0999 V2000
    0.6374   -0.1818   -0.5711 S   0  0  0  0  0  0  0  0  0  0  0  0
    8.2589   -4.4281   -2.3348 O   0  0  0  0  0  0  0  0  0  0  0  0
    6.9860   -2.5982   -2.3338 O   0  0  0  0  0  0  0  0  0  0  0  0
   -0.1733    0.5736    0.6011 O   0  0  0  0  0  0  0  0  0  0  0  0
    0.4115    0.5221   -1.8091 O   0  0  0  0  0  0  0  0  0  0  0  0
    0.2470   -1.5763   -0.4201 O   0  0  0  0  0  0  0  0  0  0  0  0
    6.7884   -2.4156    0.5953 C   0  0  2  0  0  0  0  0  0  0  0  0
    5.2023   -2.5619    0.6915 C   0  0  2  0  0  0  0  0  0  0  0  0
    7.5562   -3.5840   -0.1502 C   0  0  2  0  0  0  0  0  0  0  0  0
    4.7100   -3.7017   -0.2378 C   0  0  0  0  0  0  0  0  0  0  0  0
    7.2595   -1.0087    0.1675 C   0  0  0  0  0  0  0  0  0  0  0  0
    6.9185   -4.9278    0.2469 C   0  0  0  0  0  0  0  0  0  0  0  0
    5.4368   -5.0347   -0.0808 C   0  0  0  0  0  0  0  0  0  0  0  0
    4.4330   -1.2418    0.4260 C   0  0  0  0  0  0  0  0  0  0  0  0
    6.5188    0.0697    0.9368 C   0  0  0  0  0  0  0  0  0  0  0  0
    4.8428   -2.9448    2.1582 C   0  0  0  0  0  0  0  0  0  0  0  0
    5.0642    0.0010    0.5735 C   0  0  0  0  0  0  0  0  0  0  0  0
    9.0269   -3.6042    0.3430 C   0  0  0  0  0  0  0  0  0  0  0  0
    7.5630   -3.4608   -1.6913 C   0  0  0  0  0  0  0  0  0  0  0  0
    3.0678   -1.2222    0.0916 C   0  0  0  0  0  0  0  0  0  0  0  0
    4.3541    1.2021    0.3806 C   0  0  0  0  0  0  0  0  0  0  0  0
    2.3582   -0.0170   -0.1209 C   0  0  0  0  0  0  0  0  0  0  0  0
    2.9942    1.2318    0.0208 C   0  0  0  0  0  0  0  0  0  0  0  0
    2.3305    2.5874   -0.2068 C   0  0  0  0  0  0  0  0  0  0  0  0
    2.3862    3.4879    1.0371 C   0  0  0  0  0  0  0  0  0  0  0  0
    2.9538    3.3402   -1.3920 C   0  0  0  0  0  0  0  0  0  0  0  0
  1  4  1  0  0  0  0
  1  5  2  0  0  0  0
  1  6  2  0  0  0  0
  1 22  1  0  0  0  0
  2 19  1  0  0  0  0
  3 19  2  0  0  0  0
  7  8  1  0  0  0  0
  7  9  1  0  0  0  0
  7 11  1  1  0  0  0
  8 10  1  0  0  0  0
  8 14  1  0  0  0  0
  8 16  1  1  0  0  0
  9 12  1  0  0  0  0
  9 18  1  1  0  0  0
  9 19  1  0  0  0  0
 10 13  1  0  0  0  0
 11 15  1  0  0  0  0
 12 13  1  0  0  0  0
 14 17  1  0  0  0  0
 14 20  2  0  0  0  0
 15 17  1  0  0  0  0
 17 21  2  0  0  0  0
 20 22  1  0  0  0  0
 21 23  1  0  0  0  0
 22 23  2  0  0  0  0
 23 24  1  0  0  0  0
 24 25  1  0  0  0  0
 24 26  1  0  0  0  0
M  END
