1127
 OpenBabel10141417483D

 24 26  0  0  1  0  0  0  0  0999 V2000
    2.3393   -0.5255   -2.6945 Cl  0  0  0  0  0  0  0  0  0  0  0  0
    7.3970   -1.1224   -4.3504 Cl  0  0  0  0  0  0  0  0  0  0  0  0
    5.9282   -0.4370    6.7334 Cl  0  0  0  0  0  0  0  0  0  0  0  0
    3.9728    1.4773    0.6333 O   0  0  0  0  0  0  0  0  0  0  0  0
    2.4097    3.9136   -0.2177 N   0  0  0  0  0  0  0  0  0  0  0  0
    1.5541    4.9237    1.5576 N   0  0  0  0  0  0  0  0  0  0  0  0
    3.4521    1.6656   -0.7013 C   0  0  3  0  0  0  0  0  0  0  0  0
    3.3525    3.1725   -1.0341 C   0  0  0  0  0  0  0  0  0  0  0  0
    4.3948    0.9991   -1.7013 C   0  0  0  0  0  0  0  0  0  0  0  0
    3.9584    0.1041    1.0537 C   0  0  0  0  0  0  0  0  0  0  0  0
    3.9882   -0.0299   -2.5679 C   0  0  0  0  0  0  0  0  0  0  0  0
    5.7506    1.3903   -1.7255 C   0  0  0  0  0  0  0  0  0  0  0  0
    4.4182   -0.0146    2.4872 C   0  0  0  0  0  0  0  0  0  0  0  0
    1.2973    4.5723   -0.6621 C   0  0  0  0  0  0  0  0  0  0  0  0
    2.5531    4.1821    1.1130 C   0  0  0  0  0  0  0  0  0  0  0  0
    4.9172   -0.6897   -3.3794 C   0  0  0  0  0  0  0  0  0  0  0  0
    6.6690    0.7564   -2.5624 C   0  0  0  0  0  0  0  0  0  0  0  0
    6.2528   -0.2986   -3.3660 C   0  0  0  0  0  0  0  0  0  0  0  0
    0.7708    5.1689    0.4642 C   0  0  0  0  0  0  0  0  0  0  0  0
    3.6283   -0.6421    3.4637 C   0  0  0  0  0  0  0  0  0  0  0  0
    5.6916    0.4524    2.8462 C   0  0  0  0  0  0  0  0  0  0  0  0
    4.0968   -0.7770    4.7761 C   0  0  0  0  0  0  0  0  0  0  0  0
    6.1592    0.3183    4.1549 C   0  0  0  0  0  0  0  0  0  0  0  0
    5.3573   -0.2900    5.1165 C   0  0  0  0  0  0  0  0  0  0  0  0
  1 11  1  0  0  0  0
  2 18  1  0  0  0  0
  3 24  1  0  0  0  0
  4  7  1  0  0  0  0
  4 10  1  0  0  0  0
  5  8  1  0  0  0  0
  5 14  1  0  0  0  0
  5 15  1  0  0  0  0
  6 15  2  0  0  0  0
  6 19  1  0  0  0  0
  7  8  1  0  0  0  0
  7  9  1  0  0  0  0
  9 11  2  0  0  0  0
  9 12  1  0  0  0  0
 10 13  1  0  0  0  0
 11 16  1  0  0  0  0
 12 17  2  0  0  0  0
 13 20  2  0  0  0  0
 13 21  1  0  0  0  0
 14 19  2  0  0  0  0
 16 18  2  0  0  0  0
 17 18  1  0  0  0  0
 20 22  1  0  0  0  0
 21 23  2  0  0  0  0
 22 24  2  0  0  0  0
 23 24  1  0  0  0  0
M  END
