974
 OpenBabel10141417513D

 20 19  0  0  0  0  0  0  0  0999 V2000
    3.5514    2.8161   -3.0186 O   0  0  0  0  0  0  0  0  0  0  0  0
    7.2930    1.6477    1.8969 O   0  0  0  0  0  0  0  0  0  0  0  0
    4.3871   -5.3873    2.4568 O   0  0  0  0  0  0  0  0  0  0  0  0
    5.9477   -4.8814   -0.2686 O   0  0  0  0  0  0  0  0  0  0  0  0
    4.1901    3.6383   -1.0488 O   0  0  0  0  0  0  0  0  0  0  0  0
    7.5005    0.6842   -0.0885 O   0  0  0  0  0  0  0  0  0  0  0  0
    2.9072   -6.1186    0.9457 O   0  0  0  0  0  0  0  0  0  0  0  0
    5.1431   -5.4320   -2.3137 O   0  0  0  0  0  0  0  0  0  0  0  0
    4.5792    0.6649   -0.4627 N   0  0  0  0  0  0  0  0  0  0  0  0
    4.1519   -3.1062    0.3267 N   0  0  0  0  0  0  0  0  0  0  0  0
    4.8178   -0.7878   -0.5963 C   0  0  0  0  0  0  0  0  0  0  0  0
    3.8889   -1.6355    0.3148 C   0  0  0  0  0  0  0  0  0  0  0  0
    4.9541    1.3872   -1.7053 C   0  0  0  0  0  0  0  0  0  0  0  0
    5.2328    1.2453    0.7450 C   0  0  0  0  0  0  0  0  0  0  0  0
    3.1609   -3.7123    1.2755 C   0  0  0  0  0  0  0  0  0  0  0  0
    3.9872   -3.7101   -1.0367 C   0  0  0  0  0  0  0  0  0  0  0  0
    4.2096    2.7117   -1.8437 C   0  0  0  0  0  0  0  0  0  0  0  0
    6.7578    1.1444    0.7620 C   0  0  0  0  0  0  0  0  0  0  0  0
    3.4255   -5.1846    1.5355 C   0  0  0  0  0  0  0  0  0  0  0  0
    5.0561   -4.7730   -1.2867 C   0  0  0  0  0  0  0  0  0  0  0  0
  1 17  1  0  0  0  0
  2 18  1  0  0  0  0
  3 19  1  0  0  0  0
  4 20  1  0  0  0  0
  5 17  2  0  0  0  0
  6 18  2  0  0  0  0
  7 19  2  0  0  0  0
  8 20  2  0  0  0  0
  9 11  1  0  0  0  0
  9 13  1  0  0  0  0
  9 14  1  0  0  0  0
 10 12  1  0  0  0  0
 10 15  1  0  0  0  0
 10 16  1  0  0  0  0
 11 12  1  0  0  0  0
 13 17  1  0  0  0  0
 14 18  1  0  0  0  0
 15 19  1  0  0  0  0
 16 20  1  0  0  0  0
M  END
