1010
 OpenBabel10141417483D

 12 12  0  0  0  0  0  0  0  0999 V2000
    3.5142    1.4153   -2.9237 O   0  0  0  0  0  0  0  0  0  0  0  0
    4.6830   -2.4896   -0.0896 N   0  3  0  0  0  0  0  0  0  0  0  0
    3.8619   -3.2639    0.9705 C   0  0  0  0  0  0  0  0  0  0  0  0
    4.1361   -1.0798   -0.2907 C   0  0  0  0  0  0  0  0  0  0  0  0
    6.1308   -2.3392    0.3881 C   0  0  0  0  0  0  0  0  0  0  0  0
    4.7000   -3.2965   -1.3883 C   0  0  0  0  0  0  0  0  0  0  0  0
    2.3868   -3.4115    0.6157 C   0  0  0  0  0  0  0  0  0  0  0  0
    4.0800   -0.4879   -1.5643 C   0  0  0  0  0  0  0  0  0  0  0  0
    3.7307   -0.3185    0.8180 C   0  0  0  0  0  0  0  0  0  0  0  0
    3.5764    0.8053   -1.7060 C   0  0  0  0  0  0  0  0  0  0  0  0
    3.2059    0.9667    0.6584 C   0  0  0  0  0  0  0  0  0  0  0  0
    3.1217    1.5226   -0.6133 C   0  0  0  0  0  0  0  0  0  0  0  0
  1 10  1  0  0  0  0
  2  3  1  0  0  0  0
  2  4  1  0  0  0  0
  2  5  1  0  0  0  0
  2  6  1  0  0  0  0
  3  7  1  0  0  0  0
  4  8  2  0  0  0  0
  4  9  1  0  0  0  0
  8 10  1  0  0  0  0
  9 11  2  0  0  0  0
 10 12  2  0  0  0  0
 11 12  1  0  0  0  0
M  CHG  1   2   1
M  END
