625
 OpenBabel10141417503D

 21 23  0  0  1  0  0  0  0  0999 V2000
    1.0323    0.0593    0.9416 Cl  0  0  0  0  0  0  0  0  0  0  0  0
    6.0277   -4.5528   -0.7567 F   0  0  0  0  0  0  0  0  0  0  0  0
    3.9820   -3.8034   -0.7610 F   0  0  0  0  0  0  0  0  0  0  0  0
    5.5040   -2.8278   -1.9777 F   0  0  0  0  0  0  0  0  0  0  0  0
    7.0520   -2.1881    0.3641 O   0  0  0  0  0  0  0  0  0  0  0  0
    8.7279   -1.0997   -0.6708 O   0  0  0  0  0  0  0  0  0  0  0  0
    6.6993   -0.1207   -0.6150 N   0  0  0  0  0  0  0  0  0  0  0  0
    5.1409   -4.2273    4.0942 C   0  0  0  0  0  0  0  0  0  0  0  0
    4.1873   -5.3727    4.3015 C   0  0  0  0  0  0  0  0  0  0  0  0
    3.8547   -4.0146    4.8483 C   0  0  0  0  0  0  0  0  0  0  0  0
    5.6293   -2.4696    0.4036 C   0  0  2  0  0  0  0  0  0  0  0  0
    5.2703   -3.6573    2.7872 C   0  0  0  0  0  0  0  0  0  0  0  0
    4.7876   -1.2058    0.3178 C   0  0  0  0  0  0  0  0  0  0  0  0
    5.4090   -3.1472    1.7076 C   0  0  0  0  0  0  0  0  0  0  0  0
    5.3710   -0.0663   -0.2254 C   0  0  0  0  0  0  0  0  0  0  0  0
    5.2839   -3.4195   -0.7758 C   0  0  0  0  0  0  0  0  0  0  0  0
    3.4267   -1.1589    0.6739 C   0  0  0  0  0  0  0  0  0  0  0  0
    4.6426    1.1114   -0.4003 C   0  0  0  0  0  0  0  0  0  0  0  0
    7.5480   -1.1528   -0.3467 C   0  0  0  0  0  0  0  0  0  0  0  0
    2.6950    0.0178    0.5053 C   0  0  0  0  0  0  0  0  0  0  0  0
    3.2993    1.1541   -0.0266 C   0  0  0  0  0  0  0  0  0  0  0  0
  1 20  1  0  0  0  0
  2 16  1  0  0  0  0
  3 16  1  0  0  0  0
  4 16  1  0  0  0  0
  5 11  1  0  0  0  0
  5 19  1  0  0  0  0
  6 19  2  0  0  0  0
  7 15  1  0  0  0  0
  7 19  1  0  0  0  0
  8  9  1  0  0  0  0
  8 10  1  0  0  0  0
  8 12  1  0  0  0  0
  9 10  1  0  0  0  0
 11 13  1  0  0  0  0
 11 16  1  6  0  0  0
 11 14  1  0  0  0  0
 12 14  3  0  0  0  0
 13 15  2  0  0  0  0
 13 17  1  0  0  0  0
 15 18  1  0  0  0  0
 17 20  2  0  0  0  0
 18 21  2  0  0  0  0
 20 21  1  0  0  0  0
M  END
