77993
 OpenBabel10141417503D

 27 30  0  0  1  0  0  0  0  0999 V2000
    0.3964   -0.0953   -1.1971 S   0  0  0  0  0  0  0  0  0  0  0  0
   -0.3170   -0.9663   -0.2751 O   0  0  0  0  0  0  0  0  0  0  0  0
    1.8301    0.1199   -1.0588 O   0  0  0  0  0  0  0  0  0  0  0  0
   -7.5245    3.9118    2.6066 N   0  0  0  0  0  0  0  0  0  0  0  0
   -3.1452    7.0560    0.2564 N   0  0  0  0  0  0  0  0  0  0  0  0
   -6.3444    4.7490    2.2941 C   0  0  2  0  0  0  0  0  0  0  0  0
   -6.9837    6.1407    2.3467 C   0  0  0  0  0  0  0  0  0  0  0  0
   -8.0308    6.0606    3.4463 C   0  0  0  0  0  0  0  0  0  0  0  0
   -8.1809    4.5775    3.7387 C   0  0  0  0  0  0  0  0  0  0  0  0
   -5.6745    4.4445    0.9350 C   0  0  0  0  0  0  0  0  0  0  0  0
   -4.4568    5.2874    0.6450 C   0  0  0  0  0  0  0  0  0  0  0  0
   -7.1992    2.5288    2.9313 C   0  0  0  0  0  0  0  0  0  0  0  0
   -3.1067    4.8343    0.4363 C   0  0  0  0  0  0  0  0  0  0  0  0
   -4.4329    6.6612    0.4829 C   0  0  0  0  0  0  0  0  0  0  0  0
   -2.3171    5.9623    0.2090 C   0  0  0  0  0  0  0  0  0  0  0  0
   -2.4742    3.5694    0.4163 C   0  0  0  0  0  0  0  0  0  0  0  0
   -1.0870    3.4712    0.1843 C   0  0  0  0  0  0  0  0  0  0  0  0
   -0.9389    5.8974   -0.0181 C   0  0  0  0  0  0  0  0  0  0  0  0
   -0.4104    2.1192    0.1642 C   0  0  0  0  0  0  0  0  0  0  0  0
   -0.3392    4.6348   -0.0275 C   0  0  0  0  0  0  0  0  0  0  0  0
   -0.4101    1.4918   -1.2230 C   0  0  0  0  0  0  0  0  0  0  0  0
    0.1038   -0.7184   -2.8379 C   0  0  0  0  0  0  0  0  0  0  0  0
   -1.0411   -1.4798   -3.0887 C   0  0  0  0  0  0  0  0  0  0  0  0
    1.0304   -0.4630   -3.8522 C   0  0  0  0  0  0  0  0  0  0  0  0
   -1.2747   -1.9640   -4.3750 C   0  0  0  0  0  0  0  0  0  0  0  0
    0.7886   -0.9518   -5.1375 C   0  0  0  0  0  0  0  0  0  0  0  0
   -0.3630   -1.6971   -5.3979 C   0  0  0  0  0  0  0  0  0  0  0  0
  1  2  2  0  0  0  0
  1  3  2  0  0  0  0
  1 21  1  0  0  0  0
  1 22  1  0  0  0  0
  4  6  1  0  0  0  0
  4  9  1  0  0  0  0
  4 12  1  0  0  0  0
  5 14  1  0  0  0  0
  5 15  1  0  0  0  0
  6  7  1  0  0  0  0
  6 10  1  6  0  0  0
  7  8  1  0  0  0  0
  8  9  1  0  0  0  0
 10 11  1  0  0  0  0
 11 13  1  0  0  0  0
 11 14  2  0  0  0  0
 13 15  2  0  0  0  0
 13 16  1  0  0  0  0
 15 18  1  0  0  0  0
 16 17  2  0  0  0  0
 17 19  1  0  0  0  0
 17 20  1  0  0  0  0
 18 20  2  0  0  0  0
 19 21  1  0  0  0  0
 22 23  2  0  0  0  0
 22 24  1  0  0  0  0
 23 25  1  0  0  0  0
 24 26  2  0  0  0  0
 25 27  2  0  0  0  0
 26 27  1  0  0  0  0
M  END
