
 OpenBabel10141417543D

 33 36  0  0  0  0  0  0  0  0999 V2000
   -4.4554   -8.9571   -5.2572 C   0  0  0  0  0  0  0  0  0  0  0  0
   -4.6532   -8.0194   -4.2284 C   0  0  0  0  0  0  0  0  0  0  0  0
   -5.7795   -7.1666   -4.1901 C   0  0  0  0  0  0  0  0  0  0  0  0
   -6.7011   -7.3283   -5.2397 C   0  0  0  0  0  0  0  0  0  0  0  0
   -6.5213   -8.2672   -6.2722 C   0  0  0  0  0  0  0  0  0  0  0  0
   -5.3865   -9.0775   -6.2850 C   0  0  0  0  0  0  0  0  0  0  0  0
   -5.9619   -6.1425   -3.1033 C   0  0  0  0  0  0  0  0  0  0  0  0
   -5.5033   -6.4091   -1.7982 C   0  0  0  0  0  0  0  0  0  0  0  0
   -5.5731   -5.4509   -0.7810 C   0  0  0  0  0  0  0  0  0  0  0  0
   -6.0589   -4.1734   -1.0479 C   0  0  0  0  0  0  0  0  0  0  0  0
   -6.6104   -3.8602   -2.2939 C   0  0  0  0  0  0  0  0  0  0  0  0
   -6.5860   -4.8754   -3.2863 C   0  0  0  0  0  0  0  0  0  0  0  0
   -7.2538   -4.6309   -4.4629 O   0  0  0  0  0  0  0  0  0  0  0  0
   -7.1072   -2.5563   -2.5545 N   0  0  0  0  0  0  0  0  0  0  0  0
   -7.0924   -1.6519   -1.5428 N   0  0  0  0  0  0  0  0  0  0  0  0
   -7.6579   -0.4959   -1.7059 C   0  0  0  0  0  0  0  0  0  0  0  0
   -7.7330    0.5056   -0.6210 C   0  0  0  0  0  0  0  0  0  0  0  0
   -8.5516    1.4706   -0.9311 N   0  0  0  0  0  0  0  0  0  0  0  0
   -9.0045    1.2152   -2.2361 N   0  0  0  0  0  0  0  0  0  0  0  0
   -8.4203    0.0880   -2.8455 C   0  0  0  0  0  0  0  0  0  0  0  0
   -6.9295    0.3384    0.6112 C   0  0  0  0  0  0  0  0  0  0  0  0
   -8.4255   -0.3840   -3.9486 O   0  0  0  0  0  0  0  0  0  0  0  0
   -9.9273    2.0988   -2.8459 C   0  0  0  0  0  0  0  0  0  0  0  0
  -10.4793    1.7777   -4.0870 C   0  0  0  0  0  0  0  0  0  0  0  0
  -10.3199    3.3074   -2.2519 C   0  0  0  0  0  0  0  0  0  0  0  0
  -11.1623    4.1975   -2.9410 C   0  0  0  0  0  0  0  0  0  0  0  0
  -11.6423    3.8928   -4.2258 C   0  0  0  0  0  0  0  0  0  0  0  0
  -11.3334    2.6440   -4.7827 C   0  0  0  0  0  0  0  0  0  0  0  0
  -11.7940    2.2071   -6.1452 C   0  0  0  0  0  0  0  0  0  0  0  0
  -12.4450    4.9018   -4.9988 C   0  0  0  0  0  0  0  0  0  0  0  0
   -7.5361   -8.4304   -7.3436 C   0  0  0  0  0  0  0  0  0  0  0  0
   -8.6030   -7.6286   -7.1666 O   0  0  0  0  0  0  0  0  0  0  0  0
   -7.4745   -9.2029   -8.2819 O   0  0  0  0  0  0  0  0  0  0  0  0
  1  2  1  0  0  0  0
  1  6  2  0  0  0  0
  2  3  2  0  0  0  0
  3  4  1  0  0  0  0
  3  7  1  0  0  0  0
  4  5  2  0  0  0  0
  5  6  1  0  0  0  0
  5 31  1  0  0  0  0
  8  7  2  0  0  0  0
  8  9  1  0  0  0  0
  9 10  2  0  0  0  0
 10 11  1  0  0  0  0
 11 12  2  0  0  0  0
 11 14  1  0  0  0  0
 12  7  1  0  0  0  0
 12 13  1  0  0  0  0
 14 15  1  0  0  0  0
 15 16  2  0  0  0  0
 16 17  1  0  0  0  0
 16 20  1  0  0  0  0
 17 18  2  0  0  0  0
 17 21  1  0  0  0  0
 18 19  1  0  0  0  0
 19 20  1  0  0  0  0
 19 23  1  0  0  0  0
 20 22  2  0  0  0  0
 23 25  2  0  0  0  0
 24 23  1  0  0  0  0
 24 28  2  0  0  0  0
 25 26  1  0  0  0  0
 26 27  2  0  0  0  0
 27 28  1  0  0  0  0
 27 30  1  0  0  0  0
 28 29  1  0  0  0  0
 31 32  1  0  0  0  0
 31 33  2  0  0  0  0
M  END
