
 OpenBabel10141417483D

 27 28  0  0  1  0  0  0  0  0999 V2000
    1.0157   -4.5886    1.1826 N   0  0  0  0  0  0  0  0  0  0  0  0
   -0.0935   -3.7942    0.8944 C   0  0  0  0  0  0  0  0  0  0  0  0
    2.2602   -3.9843    1.7110 C   0  0  2  0  0  0  0  0  0  0  0  0
   -2.5524   -3.7427    0.6024 N   0  0  0  0  0  0  0  0  0  0  0  0
   -1.3340   -4.4912    0.2464 C   0  0  1  0  0  0  0  0  0  0  0  0
    3.2309   -3.5114    0.6133 C   0  0  0  0  0  0  0  0  0  0  0  0
   -4.9563   -3.1891    0.3590 C   0  0  0  0  0  0  0  0  0  0  0  0
   -3.8349   -4.1981    0.0035 C   0  0  2  0  0  0  0  0  0  0  0  0
   -0.0250   -2.5671    0.9937 O   0  0  0  0  0  0  0  0  0  0  0  0
    4.3450   -3.0554    0.8312 O   0  0  0  0  0  0  0  0  0  0  0  0
   -5.8465   -2.8713   -0.4213 O   0  0  0  0  0  0  0  0  0  0  0  0
   -4.2682   -5.6057    0.4614 C   0  0  0  0  0  0  0  0  0  0  0  0
    0.9229   -5.9871    1.5775 C   0  0  0  0  0  0  0  0  0  0  0  0
    2.7579   -3.6800   -0.6433 O   0  0  0  0  0  0  0  0  0  0  0  0
   -4.8419   -2.7427    1.6475 O   0  0  0  0  0  0  0  0  0  0  0  0
   -5.5534   -6.0965   -0.2349 C   0  0  0  0  0  0  0  0  0  0  0  0
    2.9178   -5.1003    2.5370 C   0  0  0  0  0  0  0  0  0  0  0  0
   -6.0193   -7.4611    0.2208 C   0  0  0  0  0  0  0  0  0  0  0  0
    2.3444   -6.3822    1.9444 C   0  0  0  0  0  0  0  0  0  0  0  0
   -1.0722   -4.5416   -1.2613 C   0  0  0  0  0  0  0  0  0  0  0  0
   -5.7749   -1.7338    2.0414 C   0  0  0  0  0  0  0  0  0  0  0  0
   -7.2827   -7.6215    0.8115 C   0  0  0  0  0  0  0  0  0  0  0  0
   -5.2342   -8.5988   -0.0065 C   0  0  0  0  0  0  0  0  0  0  0  0
   -7.7579   -8.8933    1.1413 C   0  0  0  0  0  0  0  0  0  0  0  0
   -5.7084   -9.8693    0.3263 C   0  0  0  0  0  0  0  0  0  0  0  0
   -6.9749  -10.0174    0.8903 C   0  0  0  0  0  0  0  0  0  0  0  0
   -7.0886   -2.3520    2.4811 C   0  0  0  0  0  0  0  0  0  0  0  0
  2  1  1  0  0  0  0
  3  1  1  0  0  0  0
  3  6  1  6  0  0  0
  5  2  1  1  0  0  0
  5  4  1  0  0  0  0
  5 20  1  0  0  0  0
  8 12  1  1  0  0  0
  8  7  1  0  0  0  0
  8  4  1  0  0  0  0
  9  2  2  0  0  0  0
 10  6  2  0  0  0  0
 11  7  2  0  0  0  0
 13  1  1  0  0  0  0
 14  6  1  0  0  0  0
 15  7  1  0  0  0  0
 16 12  1  0  0  0  0
 17  3  1  0  0  0  0
 18 16  1  0  0  0  0
 19 13  1  0  0  0  0
 19 17  1  0  0  0  0
 21 15  1  0  0  0  0
 21 27  1  0  0  0  0
 22 18  2  0  0  0  0
 23 18  1  0  0  0  0
 24 22  1  0  0  0  0
 25 23  2  0  0  0  0
 26 24  2  0  0  0  0
 26 25  1  0  0  0  0
M  END
