
 OpenBabel10141417503D

 26 28  0  0  0  0  0  0  0  0999 V2000
    1.0359    0.3243    0.4833 C   0  0  0  0  0  0  0  0  0  0  0  0
    1.5768    0.4751   -0.8077 N   0  0  0  0  0  0  0  0  0  0  0  0
    1.5214    1.7295   -1.4223 C   0  0  0  0  0  0  0  0  0  0  0  0
    0.9096   -1.0999    0.9380 C   0  0  0  0  0  0  0  0  0  0  0  0
    0.6676    1.2210    1.1962 O   0  0  0  0  0  0  0  0  0  0  0  0
    2.6403    2.5739   -1.3902 C   0  0  0  0  0  0  0  0  0  0  0  0
    3.8949    2.2132   -0.6093 C   0  0  0  0  0  0  0  0  0  0  0  0
    1.3454   -2.1634    0.1319 C   0  0  0  0  0  0  0  0  0  0  0  0
    0.3674   -1.3861    2.1972 C   0  0  0  0  0  0  0  0  0  0  0  0
    0.6939   -3.7609    1.8152 C   0  0  0  0  0  0  0  0  0  0  0  0
    0.2677   -2.7126    2.6354 C   0  0  0  0  0  0  0  0  0  0  0  0
    1.2063   -3.4779    0.5544 C   0  0  0  0  0  0  0  0  0  0  0  0
    0.5328   -5.0273    2.3028 O   0  0  0  0  0  0  0  0  0  0  0  0
    0.3508    2.0741   -2.1128 C   0  0  0  0  0  0  0  0  0  0  0  0
    2.5305    3.7663   -2.1138 C   0  0  0  0  0  0  0  0  0  0  0  0
    1.4944   -5.9737    1.8393 C   0  0  0  0  0  0  0  0  0  0  0  0
    0.2314    3.3369   -2.6782 C   0  0  0  0  0  0  0  0  0  0  0  0
    1.3245    4.1869   -2.6702 C   0  0  0  0  0  0  0  0  0  0  0  0
    5.0391    3.2590   -0.5710 C   0  0  0  0  0  0  0  0  0  0  0  0
    5.8201    5.5894   -0.0081 N   0  0  0  0  0  0  0  0  0  0  0  0
    4.6852    4.6429    0.0612 C   0  0  3  0  0  0  0  0  0  0  0  0
    5.3515    6.9825    0.0675 C   0  0  0  0  0  0  0  0  0  0  0  0
    6.8058    5.3100    1.0393 C   0  0  0  0  0  0  0  0  0  0  0  0
    4.0029    4.6019    1.4335 C   0  0  0  0  0  0  0  0  0  0  0  0
    6.2324    5.3913    2.4510 C   0  0  0  0  0  0  0  0  0  0  0  0
    4.9384    4.6038    2.6343 C   0  0  0  0  0  0  0  0  0  0  0  0
  2  1  1  0  0  0  0
  3  2  1  0  0  0  0
  4  1  1  0  0  0  0
  5  1  2  0  0  0  0
  6  3  1  0  0  0  0
  7  6  1  0  0  0  0
  7 19  1  0  0  0  0
  8  4  1  0  0  0  0
  9  4  2  0  0  0  0
 10 11  2  0  0  0  0
 11  9  1  0  0  0  0
 12  8  2  0  0  0  0
 12 10  1  0  0  0  0
 13 10  1  0  0  0  0
 14  3  2  0  0  0  0
 15  6  2  0  0  0  0
 16 13  1  0  0  0  0
 17 14  1  0  0  0  0
 18 17  2  0  0  0  0
 18 15  1  0  0  0  0
 20 21  1  0  0  0  0
 21 19  1  0  0  0  0
 22 20  1  0  0  0  0
 23 20  1  0  0  0  0
 24 21  1  0  0  0  0
 25 26  1  0  0  0  0
 25 23  1  0  0  0  0
 26 24  1  0  0  0  0
M  END
