
 OpenBabel10141417503D

 17 18  0  0  0  0  0  0  0  0999 V2000
    0.6709   -0.2993    0.6112 S   0  0  0  0  0  0  0  0  0  0  0  0
   -0.3638   -5.1805   -3.9385 O   0  0  0  0  0  0  0  0  0  0  0  0
   -1.2492   -3.9105   -8.7794 O   0  0  0  0  0  0  0  0  0  0  0  0
   -0.9225   -4.1926   -6.4730 N   0  0  0  0  0  0  0  0  0  0  0  0
   -0.4196   -2.2408   -7.3586 N   0  0  0  0  0  0  0  0  0  0  0  0
   -0.4381   -3.3807   -5.4645 C   0  0  0  0  0  0  0  0  0  0  0  0
   -0.1161   -2.1890   -6.0121 C   0  0  0  0  0  0  0  0  0  0  0  0
   -0.3307   -3.9613   -4.0966 C   0  0  0  0  0  0  0  0  0  0  0  0
   -0.1695   -3.0842   -2.9190 C   0  0  0  0  0  0  0  0  0  0  0  0
   -0.9144   -3.5062   -7.6817 C   0  0  0  0  0  0  0  0  0  0  0  0
    0.5278   -0.9668   -5.4653 C   0  0  0  0  0  0  0  0  0  0  0  0
   -0.9272   -1.9209   -2.7537 C   0  0  0  0  0  0  0  0  0  0  0  0
    0.7531   -3.4613   -1.9364 C   0  0  0  0  0  0  0  0  0  0  0  0
    0.2970   -1.4181   -0.7215 C   0  0  0  0  0  0  0  0  0  0  0  0
   -0.6802   -1.0818   -1.6636 C   0  0  0  0  0  0  0  0  0  0  0  0
    0.9874   -2.6270   -0.8414 C   0  0  0  0  0  0  0  0  0  0  0  0
    2.0230    0.6124   -0.1826 C   0  0  0  0  0  0  0  0  0  0  0  0
  1 14  1  0  0  0  0
  1 17  1  0  0  0  0
  2  8  2  0  0  0  0
  3 10  2  0  0  0  0
  4  6  1  0  0  0  0
  4 10  1  0  0  0  0
  5  7  1  0  0  0  0
  5 10  1  0  0  0  0
  6  7  2  0  0  0  0
  6  8  1  0  0  0  0
  7 11  1  0  0  0  0
  8  9  1  0  0  0  0
  9 12  2  0  0  0  0
  9 13  1  0  0  0  0
 12 15  1  0  0  0  0
 13 16  2  0  0  0  0
 14 15  2  0  0  0  0
 14 16  1  0  0  0  0
M  END
