824
 OpenBabel10141417503D

 14 15  0  0  0  0  0  0  0  0999 V2000
    0.9974   -0.3634    0.0383 O   0  0  0  0  0  0  0  0  0  0  0  0
    5.0263   -2.4634    0.0251 O   0  0  0  0  0  0  0  0  0  0  0  0
    2.8677    1.0052    0.0529 N   0  0  0  0  0  0  0  0  0  0  0  0
    3.0188   -1.3626    0.0431 N   0  0  0  0  0  0  0  0  0  0  0  0
    6.2814    0.2716    0.0182 N   0  0  0  0  0  0  0  0  0  0  0  0
    5.0476    2.1280    0.0248 N   0  0  0  0  0  0  0  0  0  0  0  0
    2.0908    2.2384    0.0432 C   0  0  0  0  0  0  0  0  0  0  0  0
    4.2464    1.0273    0.0339 C   0  0  0  0  0  0  0  0  0  0  0  0
    1.7865    2.7141   -1.3778 C   0  0  0  0  0  0  0  0  0  0  0  0
    4.9771   -0.1237    0.0271 C   0  0  0  0  0  0  0  0  0  0  0  0
    2.2214   -0.2299    0.0441 C   0  0  0  0  0  0  0  0  0  0  0  0
    4.3941   -1.4139    0.0319 C   0  0  0  0  0  0  0  0  0  0  0  0
    0.9851    4.0062   -1.3681 C   0  0  0  0  0  0  0  0  0  0  0  0
    6.2742    1.6434    0.0187 C   0  0  0  0  0  0  0  0  0  0  0  0
  1 11  2  0  0  0  0
  2 12  2  0  0  0  0
  3  7  1  0  0  0  0
  3  8  1  0  0  0  0
  3 11  1  0  0  0  0
  4 11  1  0  0  0  0
  4 12  1  0  0  0  0
  5 10  1  0  0  0  0
  5 14  1  0  0  0  0
  6  8  1  0  0  0  0
  6 14  2  0  0  0  0
  7  9  1  0  0  0  0
  8 10  2  0  0  0  0
  9 13  1  0  0  0  0
 10 12  1  0  0  0  0
M  END
