494
 OpenBabel10141417563D

 22 22  0  0  0  0  0  0  0  0999 V2000
    0.9239   -0.1827   -0.1569 O   0  0  0  0  0  0  0  0  0  0  0  0
    4.1764    0.2895   -6.8074 O   0  0  0  0  0  0  0  0  0  0  0  0
    4.7160    2.8953   -7.0624 O   0  0  0  0  0  0  0  0  0  0  0  0
    3.7422    5.4753   -3.9370 O   0  5  0  0  0  0  0  0  0  0  0  0
    4.5521    5.2151   -5.9611 O   0  0  0  0  0  0  0  0  0  0  0  0
    2.7320   -0.0435    1.2574 N   0  0  0  0  0  0  0  0  0  0  0  0
    4.0510    4.7746   -4.9207 N   0  3  0  0  0  0  0  0  0  0  0  0
    5.4483    0.4822   -1.2409 N   0  0  0  0  0  0  0  0  0  0  0  0
    1.8696   -0.4285    2.3840 C   0  0  0  0  0  0  0  0  0  0  0  0
    4.1629    0.0709    1.6014 C   0  0  0  0  0  0  0  0  0  0  0  0
    2.1286    0.0540   -0.0114 C   0  0  0  0  0  0  0  0  0  0  0  0
    0.8161    0.6213    2.7148 C   0  0  0  0  0  0  0  0  0  0  0  0
    4.9137   -1.2508    1.4506 C   0  0  0  0  0  0  0  0  0  0  0  0
    2.8804    1.4504   -3.5633 C   0  0  0  0  0  0  0  0  0  0  0  0
    2.8912    0.4822   -1.2409 C   0  0  0  0  0  0  0  0  0  0  0  0
    2.2312    0.9199   -2.3395 C   0  0  0  0  0  0  0  0  0  0  0  0
    3.1821    2.8174   -3.6678 C   0  0  0  0  0  0  0  0  0  0  0  0
    3.2181    0.6040   -4.6283 C   0  0  0  0  0  0  0  0  0  0  0  0
    3.7888    3.3317   -4.8365 C   0  0  0  0  0  0  0  0  0  0  0  0
    3.8393    1.1213   -5.7724 C   0  0  0  0  0  0  0  0  0  0  0  0
    4.1243    2.4874   -5.8978 C   0  0  0  0  0  0  0  0  0  0  0  0
    4.2972    0.4822   -1.2409 C   0  0  0  0  0  0  0  0  0  0  0  0
  1 11  2  0  0  0  0
  2 20  1  0  0  0  0
  3 21  1  0  0  0  0
  4  7  1  0  0  0  0
  5  7  2  0  0  0  0
  6  9  1  0  0  0  0
  6 10  1  0  0  0  0
  6 11  1  0  0  0  0
  7 19  1  0  0  0  0
  8 22  3  0  0  0  0
  9 12  1  0  0  0  0
 10 13  1  0  0  0  0
 11 15  1  0  0  0  0
 14 16  1  0  0  0  0
 14 17  2  0  0  0  0
 14 18  1  0  0  0  0
 15 16  2  0  0  0  0
 15 22  1  0  0  0  0
 17 19  1  0  0  0  0
 18 20  2  0  0  0  0
 19 21  2  0  0  0  0
 20 21  1  0  0  0  0
M  CHG  2   4  -1   7   1
M  END
