442
 OpenBabel10141417503D

 20 22  0  0  1  0  0  0  0  0999 V2000
    3.4401   -0.0531    1.6503 O   0  0  0  0  0  0  0  0  0  0  0  0
    3.6870   -3.6341   -1.1856 O   0  0  0  0  0  0  0  0  0  0  0  0
   -2.1420   -0.9109   -4.3318 O   0  0  0  0  0  0  0  0  0  0  0  0
    1.8172    0.4269   -2.4932 N   0  0  0  0  0  0  0  0  0  0  0  0
    1.6645   -1.8609   -3.4014 N   0  0  0  0  0  0  0  0  0  0  0  0
   -0.2684    1.0614   -3.0365 N   0  0  0  0  0  0  0  0  0  0  0  0
   -0.4893   -2.5047   -4.1887 N   0  0  0  0  0  0  0  0  0  0  0  0
    1.2570   -4.0037   -4.0440 N   0  0  0  0  0  0  0  0  0  0  0  0
    3.1571    0.5862   -1.9299 C   0  0  1  0  0  0  0  0  0  0  0  0
    3.7551   -1.3166   -0.4317 C   0  0  2  0  0  0  0  0  0  0  0  0
    2.9515   -0.2478    0.3317 C   0  0  2  0  0  0  0  0  0  0  0  0
    3.1492    1.0385   -0.4666 C   0  0  0  0  0  0  0  0  0  0  0  0
    3.9590   -0.6896   -1.8055 C   0  0  0  0  0  0  0  0  0  0  0  0
    2.9950   -2.6517   -0.4233 C   0  0  0  0  0  0  0  0  0  0  0  0
    1.2169   -0.6289   -3.1119 C   0  0  0  0  0  0  0  0  0  0  0  0
    4.8758   -1.1006   -2.6962 C   0  0  0  0  0  0  0  0  0  0  0  0
    0.8825    1.4456   -2.5237 C   0  0  0  0  0  0  0  0  0  0  0  0
   -0.0699   -0.2491   -3.4018 C   0  0  0  0  0  0  0  0  0  0  0  0
   -0.9994   -1.2120   -4.0124 C   0  0  0  0  0  0  0  0  0  0  0  0
    0.7516   -2.7522   -3.8992 C   0  0  0  0  0  0  0  0  0  0  0  0
  2 14  1  0  0  0  0
  3 19  2  0  0  0  0
  4 15  1  0  0  0  0
  4 17  1  0  0  0  0
  5 15  1  0  0  0  0
  5 20  1  0  0  0  0
  6 17  2  0  0  0  0
  6 18  1  0  0  0  0
  7 19  1  0  0  0  0
  7 20  2  0  0  0  0
  8 20  1  0  0  0  0
  9 12  1  0  0  0  0
  9 13  1  0  0  0  0
  9  4  1  1  0  0  0
 10 11  1  0  0  0  0
 10 13  1  0  0  0  0
 10 14  1  6  0  0  0
 11 12  1  0  0  0  0
 11  1  1  1  0  0  0
 13 16  2  0  0  0  0
 15 18  2  0  0  0  0
 18 19  1  0  0  0  0
M  END
