
 OpenBabel10141417503D

 19 20  0  0  0  0  0  0  0  0999 V2000
   10.5435    3.7138   -5.4904 C   0  0  0  0  0  0  0  0  0  0  0  0
    1.7030    3.3087   -5.2431 C   0  0  0  0  0  0  0  0  0  0  0  0
    9.6368    4.5055   -4.5613 C   0  0  0  0  0  0  0  0  0  0  0  0
    3.0503    8.5770   -3.0169 C   0  0  0  0  0  0  0  0  0  0  0  0
    3.4007    7.8450   -4.3083 C   0  0  0  0  0  0  0  0  0  0  0  0
    2.5090    7.6108   -1.9673 C   0  0  0  0  0  0  0  0  0  0  0  0
    7.7654    3.0406   -3.6773 C   0  0  0  0  0  0  0  0  0  0  0  0
    7.2769    4.6038   -5.4435 C   0  0  0  0  0  0  0  0  0  0  0  0
    6.4136    2.6672   -3.6333 C   0  0  0  0  0  0  0  0  0  0  0  0
    5.9312    4.2273   -5.4056 C   0  0  0  0  0  0  0  0  0  0  0  0
    2.2367    6.9722   -4.7798 C   0  0  0  0  0  0  0  0  0  0  0  0
    1.3909    6.7325   -2.5391 C   0  0  0  0  0  0  0  0  0  0  0  0
    2.6919    4.8887   -3.5011 C   0  0  0  0  0  0  0  0  0  0  0  0
    2.9715    3.9812   -4.7213 C   0  0  3  0  0  0  0  0  0  0  0  0
    8.2028    4.0345   -4.5632 C   0  0  0  0  0  0  0  0  0  0  0  0
    5.4812    3.2891   -4.4779 C   0  0  0  0  0  0  0  0  0  0  0  0
    4.0304    2.9235   -4.3611 C   0  0  0  0  0  0  0  0  0  0  0  0
    1.7664    6.0124   -3.7701 N   0  0  0  0  0  0  0  0  0  0  0  0
    3.7345    1.8132   -3.9359 O   0  0  0  0  0  0  0  0  0  0  0  0
  3  1  1  0  0  0  0
  5  4  1  0  0  0  0
  6  4  1  0  0  0  0
  9  7  1  0  0  0  0
 10  8  2  0  0  0  0
 11  5  1  0  0  0  0
 12  6  1  0  0  0  0
 14  2  1  0  0  0  0
 14 13  1  0  0  0  0
 15  3  1  0  0  0  0
 15  7  2  0  0  0  0
 15  8  1  0  0  0  0
 16  9  2  0  0  0  0
 16 10  1  0  0  0  0
 17 14  1  0  0  0  0
 17 16  1  0  0  0  0
 18 11  1  0  0  0  0
 18 12  1  0  0  0  0
 18 13  1  0  0  0  0
 19 17  2  0  0  0  0
M  END
