1364
 OpenBabel10141417503D

 12 12  0  0  1  0  0  0  0  0999 V2000
    1.7347   -1.0763    0.3965 O   0  0  0  0  0  0  0  0  0  0  0  0
    3.3348    1.2864    0.8228 N   0  0  0  0  0  0  0  0  0  0  0  0
    3.4437    0.1005    1.7119 C   0  0  2  0  0  0  0  0  0  0  0  0
    3.0752   -1.1951    0.9053 C   0  0  1  0  0  0  0  0  0  0  0  0
    3.2305   -2.4884    1.6900 C   0  0  0  0  0  0  0  0  0  0  0  0
    2.5742    0.2363    2.9720 C   0  0  0  0  0  0  0  0  0  0  0  0
    4.4848   -2.8250    2.2345 C   0  0  0  0  0  0  0  0  0  0  0  0
    2.1679   -3.3818    1.8791 C   0  0  0  0  0  0  0  0  0  0  0  0
    3.7164    2.5336    1.4782 C   0  0  0  0  0  0  0  0  0  0  0  0
    4.6522   -4.0010    2.9690 C   0  0  0  0  0  0  0  0  0  0  0  0
    2.3382   -4.5633    2.6058 C   0  0  0  0  0  0  0  0  0  0  0  0
    3.5844   -4.8674    3.1568 C   0  0  0  0  0  0  0  0  0  0  0  0
  2  9  1  0  0  0  0
  3  2  1  6  0  0  0
  3  4  1  0  0  0  0
  3  6  1  0  0  0  0
  4  1  1  1  0  0  0
  4  5  1  0  0  0  0
  5  7  2  0  0  0  0
  5  8  1  0  0  0  0
  7 10  1  0  0  0  0
  8 11  2  0  0  0  0
 10 12  2  0  0  0  0
 11 12  1  0  0  0  0
M  END
