668
 OpenBabel10141417523D

 13 13  0  0  1  0  0  0  0  0999 V2000
    2.0429    0.5498   -0.7746 O   0  0  0  0  0  0  0  0  0  0  0  0
   -1.4098    3.4003    1.4824 O   0  0  0  0  0  0  0  0  0  0  0  0
   -2.1767    2.0928    3.7301 O   0  0  0  0  0  0  0  0  0  0  0  0
    4.1813   -1.0568    0.2301 N   0  0  0  0  0  0  0  0  0  0  0  0
    1.7832   -0.2414    0.3951 C   0  0  2  0  0  0  0  0  0  0  0  0
    0.7544    0.4192    1.2993 C   0  0  0  0  0  0  0  0  0  0  0  0
    3.1309   -0.5079    1.1158 C   0  0  0  0  0  0  0  0  0  0  0  0
    0.1719    1.6537    0.9610 C   0  0  0  0  0  0  0  0  0  0  0  0
    0.3249   -0.2365    2.4674 C   0  0  0  0  0  0  0  0  0  0  0  0
   -0.8051    2.2053    1.7863 C   0  0  0  0  0  0  0  0  0  0  0  0
   -0.6517    0.3274    3.2948 C   0  0  0  0  0  0  0  0  0  0  0  0
   -1.2094    1.5463    2.9390 C   0  0  0  0  0  0  0  0  0  0  0  0
    3.8261   -2.3657   -0.3094 C   0  0  0  0  0  0  0  0  0  0  0  0
  2 10  1  0  0  0  0
  3 12  1  0  0  0  0
  4  7  1  0  0  0  0
  4 13  1  0  0  0  0
  5  7  1  1  0  0  0
  5  6  1  0  0  0  0
  5  1  1  0  0  0  0
  6  8  2  0  0  0  0
  6  9  1  0  0  0  0
  8 10  1  0  0  0  0
  9 11  2  0  0  0  0
 10 12  2  0  0  0  0
 11 12  1  0  0  0  0
M  END
