445
 OpenBabel10141417483D

 39 43  0  0  1  0  0  0  0  0999 V2000
    0.8186   -2.1341   -1.6296 O   0  0  0  0  0  0  0  0  0  0  0  0
    2.5665   -0.6840   -2.4042 O   0  0  0  0  0  0  0  0  0  0  0  0
   -0.9562   -3.9794   -1.2938 O   0  0  0  0  0  0  0  0  0  0  0  0
    0.0901    1.1331   -4.4821 O   0  0  0  0  0  0  0  0  0  0  0  0
    3.5825   -1.2829    0.6137 O   0  0  0  0  0  0  0  0  0  0  0  0
    2.0631   -6.5845    0.8820 O   0  0  0  0  0  0  0  0  0  0  0  0
   -2.5605   -4.0622    1.8512 O   0  0  0  0  0  0  0  0  0  0  0  0
   -3.8495   -2.1209   -0.2788 O   0  0  0  0  0  0  0  0  0  0  0  0
    5.9496   -2.1733    1.3168 O   0  0  0  0  0  0  0  0  0  0  0  0
    4.6013   -7.1526    0.8936 O   0  0  0  0  0  0  0  0  0  0  0  0
    8.1112   -2.4819   -0.2918 O   0  0  0  0  0  0  0  0  0  0  0  0
    0.0800   -1.4623   -5.7518 N   0  0  0  0  0  0  0  0  0  0  0  0
    0.9534   -1.9518   -0.2035 C   0  0  1  0  0  0  0  0  0  0  0  0
   -0.9214   -3.6459    0.1002 C   0  0  2  0  0  0  0  0  0  0  0  0
   -0.4574   -2.1937    0.3524 C   0  0  0  0  0  0  0  0  0  0  0  0
    0.0356   -4.6450    0.7649 C   0  0  0  0  0  0  0  0  0  0  0  0
    1.9123   -2.9584    0.3976 C   0  0  0  0  0  0  0  0  0  0  0  0
    1.5058   -4.2944    0.6119 C   0  0  0  0  0  0  0  0  0  0  0  0
    1.9694   -1.9697   -2.4548 C   0  0  2  0  0  0  0  0  0  0  0  0
    1.5464   -2.2835   -3.8978 C   0  0  0  0  0  0  0  0  0  0  0  0
    0.5264   -1.2447   -4.3610 C   0  0  1  0  0  0  0  0  0  0  0  0
    1.1166    0.1703   -4.2216 C   0  0  2  0  0  0  0  0  0  0  0  0
    1.7171    0.3891   -2.8222 C   0  0  2  0  0  0  0  0  0  0  0  0
    3.2493   -2.6099    0.6195 C   0  0  0  0  0  0  0  0  0  0  0  0
   -2.3466   -3.8062    0.6612 C   0  0  0  0  0  0  0  0  0  0  0  0
    2.4822   -5.2840    0.7842 C   0  0  0  0  0  0  0  0  0  0  0  0
    4.2117   -3.6057    0.7861 C   0  0  0  0  0  0  0  0  0  0  0  0
    3.8373   -4.9434    0.7904 C   0  0  0  0  0  0  0  0  0  0  0  0
    2.5744    1.6543   -2.8082 C   0  0  0  0  0  0  0  0  0  0  0  0
   -3.5155   -3.4977   -0.2718 C   0  0  0  0  0  0  0  0  0  0  0  0
    5.6390   -3.2497    0.8440 C   0  0  0  0  0  0  0  0  0  0  0  0
    4.8816   -5.9798    0.6979 C   0  0  0  0  0  0  0  0  0  0  0  0
    6.5987   -4.2232    0.2703 C   0  0  0  0  0  0  0  0  0  0  0  0
    6.2209   -5.5695    0.2262 C   0  0  0  0  0  0  0  0  0  0  0  0
    7.8086   -3.8150   -0.3093 C   0  0  0  0  0  0  0  0  0  0  0  0
    7.0575   -6.5253   -0.3543 C   0  0  0  0  0  0  0  0  0  0  0  0
    8.6456   -4.7802   -0.8831 C   0  0  0  0  0  0  0  0  0  0  0  0
    8.2707   -6.1270   -0.9072 C   0  0  0  0  0  0  0  0  0  0  0  0
    8.8943   -1.9931   -1.3746 C   0  0  0  0  0  0  0  0  0  0  0  0
  2 19  1  0  0  0  0
  2 23  1  0  0  0  0
  5 24  1  0  0  0  0
  6 26  1  0  0  0  0
  7 25  2  0  0  0  0
  8 30  1  0  0  0  0
  9 31  2  0  0  0  0
 10 32  2  0  0  0  0
 11 35  1  0  0  0  0
 11 39  1  0  0  0  0
 13 15  1  0  0  0  0
 13 17  1  0  0  0  0
 13  1  1  6  0  0  0
 14 15  1  0  0  0  0
 14 16  1  0  0  0  0
 14 25  1  1  0  0  0
 14  3  1  0  0  0  0
 16 18  1  0  0  0  0
 17 18  2  0  0  0  0
 17 24  1  0  0  0  0
 18 26  1  0  0  0  0
 19  1  1  1  0  0  0
 19 20  1  0  0  0  0
 20 21  1  0  0  0  0
 21 22  1  0  0  0  0
 21 12  1  6  0  0  0
 22  4  1  1  0  0  0
 22 23  1  0  0  0  0
 23 29  1  6  0  0  0
 24 27  2  0  0  0  0
 25 30  1  0  0  0  0
 26 28  2  0  0  0  0
 27 28  1  0  0  0  0
 27 31  1  0  0  0  0
 28 32  1  0  0  0  0
 31 33  1  0  0  0  0
 32 34  1  0  0  0  0
 33 34  2  0  0  0  0
 33 35  1  0  0  0  0
 34 36  1  0  0  0  0
 35 37  2  0  0  0  0
 36 38  2  0  0  0  0
 37 38  1  0  0  0  0
M  END
