
 OpenBabel10141417503D

 17 18  0  0  0  0  0  0  0  0999 V2000
    0.3028   -1.2145   -0.2968 C   0  0  0  0  0  0  0  0  0  0  0  0
    8.4853   -3.0852   -0.7685 C   0  0  0  0  0  0  0  0  0  0  0  0
    4.9931    2.5278   -0.2817 C   0  0  0  0  0  0  0  0  0  0  0  0
    3.6347   -5.6763   -0.7728 C   0  0  0  0  0  0  0  0  0  0  0  0
    2.0352    0.5619   -0.0233 C   0  0  0  0  0  0  0  0  0  0  0  0
    6.1368   -4.1914   -0.7731 C   0  0  0  0  0  0  0  0  0  0  0  0
    1.7309   -0.7637   -0.2340 C   0  0  0  0  0  0  0  0  0  0  0  0
    7.0050   -3.0887   -0.6830 C   0  0  0  0  0  0  0  0  0  0  0  0
    3.3725    0.8742   -0.0199 C   0  0  0  0  0  0  0  0  0  0  0  0
    4.8626   -3.6852   -0.6400 C   0  0  0  0  0  0  0  0  0  0  0  0
    3.9776   -1.3093   -0.3357 C   0  0  0  0  0  0  0  0  0  0  0  0
    2.6825   -1.7058   -0.3775 N   0  0  0  0  0  0  0  0  0  0  0  0
    4.3555   -0.0242   -0.1691 N   0  0  0  0  0  0  0  0  0  0  0  0
    6.3413   -1.9475   -0.4960 N   0  0  0  0  0  0  0  0  0  0  0  0
    5.0137   -2.3034   -0.4863 N   0  0  0  0  0  0  0  0  0  0  0  0
    3.6858    2.2032    0.1848 O   0  0  0  0  0  0  0  0  0  0  0  0
    3.6554   -4.2640   -0.6403 O   0  0  0  0  0  0  0  0  0  0  0  0
  7  1  1  0  0  0  0
  7  5  2  0  0  0  0
  8  2  1  0  0  0  0
  8  6  1  0  0  0  0
  9  5  1  0  0  0  0
 10  6  2  0  0  0  0
 12  7  1  0  0  0  0
 12 11  2  0  0  0  0
 13  9  2  0  0  0  0
 13 11  1  0  0  0  0
 14  8  2  0  0  0  0
 15 10  1  0  0  0  0
 15 11  1  0  0  0  0
 15 14  1  0  0  0  0
 16  3  1  0  0  0  0
 16  9  1  0  0  0  0
 17  4  1  0  0  0  0
 17 10  1  0  0  0  0
M  END
