
 OpenBabel10141417493D

 30 35  0  0  1  0  0  0  0  0999 V2000
    5.3292   -0.1065    0.4471 C   0  0  2  0  0  0  0  0  0  0  0  0
    4.4921    0.8753    1.3172 C   0  0  2  0  0  0  0  0  0  0  0  0
    4.3559   -0.5672    1.3715 O   0  0  0  0  0  0  0  0  0  0  0  0
    7.0644    1.9076    4.1100 C   0  0  0  0  0  0  0  0  0  0  0  0
    6.6555    3.3537    4.1942 C   0  0  0  0  0  0  0  0  0  0  0  0
    5.3457    3.7450    3.6253 C   0  0  0  0  0  0  0  0  0  0  0  0
    6.4840    1.2500    2.8655 C   0  0  0  0  0  0  0  0  0  0  0  0
    4.9433    1.3981    2.7303 C   0  0  1  0  0  0  0  0  0  0  0  0
    4.5537    2.8597    2.9931 C   0  0  0  0  0  0  0  0  0  0  0  0
    3.2072    3.2941    2.4621 C   0  0  0  0  0  0  0  0  0  0  0  0
    3.1261    3.0418    0.9479 C   0  0  2  0  0  0  0  0  0  0  0  0
    3.2589    1.5293    0.6904 C   0  0  1  0  0  0  0  0  0  0  0  0
    4.9650   -0.5146   -0.9557 C   0  0  0  0  0  0  0  0  0  0  0  0
    4.1091    0.5510   -1.6567 C   0  0  1  0  0  0  0  0  0  0  0  0
    2.9469    0.9848   -0.7225 C   0  0  1  0  0  0  0  0  0  0  0  0
    2.0121    1.7706   -1.6410 C   0  0  0  0  0  0  0  0  0  0  0  0
    2.1491    1.0871   -3.0179 C   0  0  0  0  0  0  0  0  0  0  0  0
    3.2718    0.0285   -2.8661 C   0  0  2  0  0  0  0  0  0  0  0  0
    2.6392   -1.2292   -2.5448 O   0  0  0  0  0  0  0  0  0  0  0  0
    2.4875   -1.9799   -3.6728 C   0  0  0  0  0  0  0  0  0  0  0  0
    3.1108   -1.2819   -4.8383 C   0  0  0  0  0  0  0  0  0  0  0  0
    4.0144   -0.2821   -4.1524 C   0  0  0  0  0  0  0  0  0  0  0  0
    1.8937   -3.0489   -3.7160 O   0  0  0  0  0  0  0  0  0  0  0  0
    4.1358    3.9955    0.3318 C   0  0  0  0  0  0  0  0  0  0  0  0
    5.3046    3.7424    0.0898 O   0  0  0  0  0  0  0  0  0  0  0  0
    3.5852    5.2463    0.3094 O   0  0  0  0  0  0  0  0  0  0  0  0
    4.5032    6.3428    0.3645 C   0  0  0  0  0  0  0  0  0  0  0  0
    7.3312    4.1955    4.7810 O   0  0  0  0  0  0  0  0  0  0  0  0
    4.2427    0.5707    3.8412 C   0  0  0  0  0  0  0  0  0  0  0  0
    5.0398    1.6933   -2.1078 C   0  0  0  0  0  0  0  0  0  0  0  0
  1  2  1  0  0  0  0
  1  3  1  6  0  0  0
  2  3  1  6  0  0  0
  2  8  1  0  0  0  0
  2 12  1  0  0  0  0
  4  5  1  0  0  0  0
  5  6  1  0  0  0  0
  5 28  2  0  0  0  0
  6  9  2  0  0  0  0
  7  4  1  0  0  0  0
  8  7  1  0  0  0  0
  8  9  1  0  0  0  0
  8 29  1  1  0  0  0
  9 10  1  0  0  0  0
 10 11  1  0  0  0  0
 11 24  1  6  0  0  0
 12 11  1  6  0  0  0
 12 15  1  0  0  0  0
 13  1  1  0  0  0  0
 14 15  1  0  0  0  0
 14 13  1  0  0  0  0
 14 30  1  1  0  0  0
 15 16  1  1  0  0  0
 16 17  1  0  0  0  0
 18 17  1  6  0  0  0
 18 14  1  0  0  0  0
 18 19  1  0  0  0  0
 18 22  1  0  0  0  0
 19 20  1  0  0  0  0
 20 21  1  0  0  0  0
 20 23  2  0  0  0  0
 21 22  1  0  0  0  0
 24 25  2  0  0  0  0
 24 26  1  0  0  0  0
 26 27  1  0  0  0  0
M  END
