
 OpenBabel10141417543D

 25 26  0  0  1  0  0  0  0  0999 V2000
    2.4034    0.6461   -0.7377 O   0  0  0  0  0  0  0  0  0  0  0  0
   -0.8062    0.2909   -3.3497 O   0  0  0  0  0  0  0  0  0  0  0  0
   -4.1127    4.2454   -0.0365 O   0  0  0  0  0  0  0  0  0  0  0  0
    4.2188   -3.6382   -2.9446 O   0  0  0  0  0  0  0  0  0  0  0  0
    5.5535   -5.3626   -2.5447 O   0  0  0  0  0  0  0  0  0  0  0  0
    0.0676    0.6616   -0.2646 C   0  0  1  0  0  0  0  0  0  0  0  0
    1.2260    1.4437   -0.8555 C   0  0  2  0  0  0  0  0  0  0  0  0
   -1.1613    1.0919   -1.0774 C   0  0  2  0  0  0  0  0  0  0  0  0
   -0.6013    1.4008   -2.4835 C   0  0  1  0  0  0  0  0  0  0  0  0
    0.8841    1.7173   -2.3207 C   0  0  0  0  0  0  0  0  0  0  0  0
    0.4856   -0.7846   -0.4505 C   0  0  0  0  0  0  0  0  0  0  0  0
    1.9644   -0.6623   -0.6000 C   0  0  0  0  0  0  0  0  0  0  0  0
   -1.8729    2.2541   -0.4227 C   0  0  0  0  0  0  0  0  0  0  0  0
    2.8423   -1.6660   -0.6833 C   0  0  0  0  0  0  0  0  0  0  0  0
   -2.0937    3.4606   -0.9749 C   0  0  0  0  0  0  0  0  0  0  0  0
   -2.7771    4.6199   -0.3244 C   0  0  2  0  0  0  0  0  0  0  0  0
    2.5109   -3.1294   -0.6299 C   0  0  0  0  0  0  0  0  0  0  0  0
   -1.9968    5.0541    0.9163 C   0  0  0  0  0  0  0  0  0  0  0  0
    3.6226   -3.9804   -0.0001 C   0  0  0  0  0  0  0  0  0  0  0  0
   -2.6361    6.2195    1.6669 C   0  0  0  0  0  0  0  0  0  0  0  0
    4.9944   -3.8832   -0.7013 C   0  0  0  0  0  0  0  0  0  0  0  0
   -1.8834    6.5730    2.9617 C   0  0  0  0  0  0  0  0  0  0  0  0
   -0.4603    7.0891    2.7205 C   0  0  0  0  0  0  0  0  0  0  0  0
    4.9526   -4.3817   -2.1215 C   0  0  0  0  0  0  0  0  0  0  0  0
    0.2864    7.4249    4.0053 C   0  0  0  0  0  0  0  0  0  0  0  0
  1 12  1  0  0  0  0
  4 24  1  0  0  0  0
  5 24  2  0  0  0  0
  6  7  1  0  0  0  0
  6  8  1  0  0  0  0
  6 11  1  6  0  0  0
  7  1  1  6  0  0  0
  7 10  1  0  0  0  0
  8  9  1  0  0  0  0
  8 13  1  1  0  0  0
  9 10  1  0  0  0  0
  9  2  1  6  0  0  0
 11 12  1  0  0  0  0
 12 14  2  3  0  0  0
 13 15  2  0  0  0  0
 14 17  1  0  0  0  0
 15 16  1  0  0  0  0
 16  3  1  1  0  0  0
 16 18  1  0  0  0  0
 17 19  1  0  0  0  0
 18 20  1  0  0  0  0
 19 21  1  0  0  0  0
 20 22  1  0  0  0  0
 21 24  1  0  0  0  0
 22 23  1  0  0  0  0
 23 25  1  0  0  0  0
M  END
