
 OpenBabel10141417503D

 30 30  0  0  0  0  0  0  0  0999 V2000
    7.7896   -2.1509    2.0433 C   0  0  0  0  0  0  0  0  0  0  0  0
    2.3086   -4.5796   -4.7800 C   0  0  0  0  0  0  0  0  0  0  0  0
    7.8150   -0.6799    1.6478 C   0  0  0  0  0  0  0  0  0  0  0  0
    6.7784    3.4460    4.1059 C   0  0  0  0  0  0  0  0  0  0  0  0
    8.0847   -3.2052   -4.4679 C   0  0  0  0  0  0  0  0  0  0  0  0
    6.1324    2.2077    4.1393 C   0  0  0  0  0  0  0  0  0  0  0  0
    7.3562    3.9011    2.9187 C   0  0  0  0  0  0  0  0  0  0  0  0
    7.8167   -4.4717   -3.9440 C   0  0  0  0  0  0  0  0  0  0  0  0
    7.0544   -2.2762   -4.6031 C   0  0  0  0  0  0  0  0  0  0  0  0
    6.0603    1.4215    2.9843 C   0  0  0  0  0  0  0  0  0  0  0  0
    7.2956    3.1171    1.7634 C   0  0  0  0  0  0  0  0  0  0  0  0
    6.5225   -4.8006   -3.5293 C   0  0  0  0  0  0  0  0  0  0  0  0
    5.7599   -2.5994   -4.1928 C   0  0  0  0  0  0  0  0  0  0  0  0
    3.3977    0.1878   -3.3617 C   0  0  0  0  0  0  0  0  0  0  0  0
    4.7829   -1.5766   -2.6313 C   0  0  0  0  0  0  0  0  0  0  0  0
    3.7943    1.0876   -2.1948 C   0  0  0  0  0  0  0  0  0  0  0  0
    5.2960   -0.8016   -1.4251 C   0  0  0  0  0  0  0  0  0  0  0  0
    2.8885   -2.1287   -3.9920 C   0  0  0  0  0  0  0  0  0  0  0  0
    5.2905    1.3860   -0.2647 C   0  0  0  0  0  0  0  0  0  0  0  0
    2.8075   -3.6585   -3.6607 C   0  0  3  0  0  0  0  0  0  0  0  0
    6.6467    1.8683    1.7836 C   0  0  0  0  0  0  0  0  0  0  0  0
    5.4822   -3.8576   -3.6173 C   0  0  0  0  0  0  0  0  0  0  0  0
    6.5963    1.0153    0.5306 C   0  0  3  0  0  0  0  0  0  0  0  0
    4.1255   -4.2162   -3.0962 C   0  0  0  0  0  0  0  0  0  0  0  0
    3.3689   -1.2253   -2.9207 N   0  0  0  0  0  0  0  0  0  0  0  0
    5.0487    0.6572   -1.5356 N   0  0  0  0  0  0  0  0  0  0  0  0
    4.0630   -4.8586   -2.0545 O   0  0  0  0  0  0  0  0  0  0  0  0
    6.6339   -0.3528    0.9309 O   0  0  0  0  0  0  0  0  0  0  0  0
   -1.8154   -2.4148   -0.5359 Cl  0  0  0  0  0  0  0  0  0  0  0  0
    0.9418    2.1207    3.2886 Cl  0  0  0  0  0  0  0  0  0  0  0  0
  3  1  1  0  0  0  0
  6  4  2  0  0  0  0
  7  4  1  0  0  0  0
  8  5  2  0  0  0  0
  9  5  1  0  0  0  0
 10  6  1  0  0  0  0
 11  7  2  0  0  0  0
 12  8  1  0  0  0  0
 13  9  2  0  0  0  0
 16 14  1  0  0  0  0
 17 15  1  0  0  0  0
 20  2  1  0  0  0  0
 20 18  1  0  0  0  0
 21 10  2  0  0  0  0
 21 11  1  0  0  0  0
 22 12  2  0  0  0  0
 22 13  1  0  0  0  0
 23 19  1  0  0  0  0
 23 21  1  0  0  0  0
 24 20  1  0  0  0  0
 24 22  1  0  0  0  0
 25 14  1  0  0  0  0
 25 15  1  0  0  0  0
 25 18  1  0  0  0  0
 26 16  1  0  0  0  0
 26 17  1  0  0  0  0
 26 19  1  0  0  0  0
 27 24  2  0  0  0  0
 28  3  1  0  0  0  0
 28 23  1  0  0  0  0
M  END
