
 OpenBabel10141417523D

 30 32  0  0  0  0  0  0  0  0999 V2000
    0.7680   -0.4984    0.0947 N   0  0  0  0  0  0  0  0  0  0  0  0
    1.7616   -1.2779   -0.6425 C   0  0  0  0  0  0  0  0  0  0  0  0
    1.7004   -1.2203   -2.1523 C   0  0  0  0  0  0  0  0  0  0  0  0
    2.4042   -2.2213   -2.8602 C   0  0  0  0  0  0  0  0  0  0  0  0
   -0.4695   -2.3617    1.1549 C   0  0  0  0  0  0  0  0  0  0  0  0
   -0.3501   -0.9929    0.7842 C   0  0  0  0  0  0  0  0  0  0  0  0
    1.0668   -0.2137   -2.8866 C   0  0  0  0  0  0  0  0  0  0  0  0
    1.0670   -0.2399   -4.2912 C   0  0  0  0  0  0  0  0  0  0  0  0
    1.7371   -1.2736   -4.9807 C   0  0  0  0  0  0  0  0  0  0  0  0
    2.4183   -2.2421   -4.2511 C   0  0  0  0  0  0  0  0  0  0  0  0
   -0.9002   -2.8359    2.3560 C   0  0  0  0  0  0  0  0  0  0  0  0
   -0.5864   -4.2898    2.5530 C   0  0  0  0  0  0  0  0  0  0  0  0
   -1.3150   -5.1079    3.0777 O   0  0  0  0  0  0  0  0  0  0  0  0
    0.6246   -4.6765    2.0761 O   0  0  0  0  0  0  0  0  0  0  0  0
    1.6594   -1.3009   -6.4487 C   0  0  0  0  0  0  0  0  0  0  0  0
    0.8830   -0.6725   -7.1390 O   0  0  0  0  0  0  0  0  0  0  0  0
    2.5776   -2.1195   -7.0074 O   0  0  0  0  0  0  0  0  0  0  0  0
   -1.1517    0.1197    0.9071 C   0  0  0  0  0  0  0  0  0  0  0  0
   -0.4522    1.2575    0.6344 N   0  0  0  0  0  0  0  0  0  0  0  0
    0.7732    0.8736    0.3167 C   0  0  0  0  0  0  0  0  0  0  0  0
    1.8947    1.8735    0.2269 C   0  0  0  0  0  0  0  0  0  0  0  0
    3.3426    1.4006    0.1870 C   0  0  0  0  0  0  0  0  0  0  0  0
    3.7755    0.5161    1.3654 C   0  0  0  0  0  0  0  0  0  0  0  0
    5.1437   -0.1026    1.1040 C   0  0  0  0  0  0  0  0  0  0  0  0
   -1.5654   -2.0488    3.4998 C   0  0  0  0  0  0  0  0  0  0  0  0
   -2.7600   -2.5327    4.3243 C   0  0  0  0  0  0  0  0  0  0  0  0
   -2.7150   -3.9717    5.2787 S   0  0  0  0  0  0  0  0  0  0  0  0
   -4.3563   -3.8448    5.7209 C   0  0  0  0  0  0  0  0  0  0  0  0
   -4.8582   -2.6046    5.4091 C   0  0  0  0  0  0  0  0  0  0  0  0
   -3.9339   -1.8471    4.6239 C   0  0  0  0  0  0  0  0  0  0  0  0
  1 20  1  0  0  0  0
  1  2  1  0  0  0  0
  1  6  1  0  0  0  0
  2  3  1  0  0  0  0
  3  7  2  0  0  0  0
  3  4  1  0  0  0  0
  4 10  2  0  0  0  0
  5 11  2  0  0  0  0
  6  5  1  0  0  0  0
  6 18  2  0  0  0  0
  7  8  1  0  0  0  0
  8  9  2  0  0  0  0
  9 15  1  0  0  0  0
 10  9  1  0  0  0  0
 11 25  1  0  0  0  0
 11 12  1  0  0  0  0
 12 13  2  0  0  0  0
 12 14  1  0  0  0  0
 15 16  2  0  0  0  0
 15 17  1  0  0  0  0
 18 19  1  0  0  0  0
 20 19  2  0  0  0  0
 20 21  1  0  0  0  0
 21 22  1  0  0  0  0
 22 23  1  0  0  0  0
 23 24  1  0  0  0  0
 25 26  1  0  0  0  0
 26 27  1  0  0  0  0
 26 30  2  0  0  0  0
 27 28  1  0  0  0  0
 28 29  2  0  0  0  0
 30 29  1  0  0  0  0
M  END
