EQI
 OpenBabel10141417483D

 20 23  0  0  0  0  0  0  0  0999 V2000
   -1.6927    0.1429   -0.0745 C   0  0  0  0  0  0  0  0  0  0  0  0
   -0.9794    1.2654    0.3454 C   0  0  0  0  0  0  0  0  0  0  0  0
    0.4304    1.2332    0.3572 C   0  0  0  0  0  0  0  0  0  0  0  0
    1.1105    0.0993   -0.1179 C   0  0  0  0  0  0  0  0  0  0  0  0
    0.3533   -1.0009   -0.5686 C   0  0  0  0  0  0  0  0  0  0  0  0
   -1.0363   -0.9930   -0.4983 C   0  0  0  0  0  0  0  0  0  0  0  0
    1.1781    2.3801    0.9846 C   0  0  0  0  0  0  0  0  0  0  0  0
    2.6763    2.2667    0.9300 C   0  0  0  0  0  0  0  0  0  0  0  0
    3.3649    1.1925    0.4901 C   0  0  0  0  0  0  0  0  0  0  0  0
    2.6404   -0.0155   -0.0507 C   0  0  2  0  0  0  0  0  0  0  0  0
    4.8942    1.0446    0.5007 C   0  0  1  0  0  0  0  0  0  0  0  0
    5.4333   -0.3309    1.0438 C   0  0  2  0  0  0  0  0  0  0  0  0
    4.3600   -1.3504    1.4456 C   0  0  0  0  0  0  0  0  0  0  0  0
    2.9800   -1.2420    0.8006 C   0  0  0  0  0  0  0  0  0  0  0  0
    5.5487    2.1396    1.3877 C   0  0  0  0  0  0  0  0  0  0  0  0
    6.8112    1.5502    1.9472 C   0  0  0  0  0  0  0  0  0  0  0  0
    6.3156    0.1560    2.2059 C   0  0  0  0  0  0  0  0  0  0  0  0
    6.4716   -1.0834    0.1715 C   0  0  0  0  0  0  0  0  0  0  0  0
   -3.0589    0.1171   -0.0599 O   0  0  0  0  0  0  0  0  0  0  0  0
    6.6852   -0.5321    3.1325 O   0  0  0  0  0  0  0  0  0  0  0  0
  1  2  2  0  0  0  0
  1  6  1  0  0  0  0
  1 19  1  0  0  0  0
  2  3  1  0  0  0  0
  3  4  2  0  0  0  0
  3  7  1  0  0  0  0
  4  5  1  0  0  0  0
  5  6  2  0  0  0  0
  7  8  1  0  0  0  0
  8  9  2  0  0  0  0
  9 10  1  0  0  0  0
 10  4  1  6  0  0  0
 10 14  1  0  0  0  0
 11  9  1  6  0  0  0
 11 12  1  0  0  0  0
 11 15  1  0  0  0  0
 12 13  1  0  0  0  0
 12 17  1  0  0  0  0
 12 18  1  6  0  0  0
 13 14  1  0  0  0  0
 15 16  1  0  0  0  0
 16 17  1  0  0  0  0
 17 20  2  0  0  0  0
M  END
