1253
 OpenBabel10141417523D

 24 27  0  0  1  0  0  0  0  0999 V2000
    2.7340   -3.1405    2.0794 O   0  0  0  0  0  0  0  0  0  0  0  0
   -1.6609   -2.2971    4.4174 O   0  0  0  0  0  0  0  0  0  0  0  0
    3.6656   -6.5004    3.1727 N   0  0  0  0  0  0  0  0  0  0  0  0
    1.0339   -9.4821    7.6297 N   0  0  0  0  0  0  0  0  0  0  0  0
    0.6532   -3.3540    2.9861 N   0  0  0  0  0  0  0  0  0  0  0  0
    2.7163   -6.6770    4.3055 C   0  0  1  0  0  0  0  0  0  0  0  0
    1.2184   -6.7868    3.8908 C   0  0  0  0  0  0  0  0  0  0  0  0
    3.2706   -7.8502    5.1977 C   0  0  0  0  0  0  0  0  0  0  0  0
    1.7116   -5.3412    1.9423 C   0  0  1  0  0  0  0  0  0  0  0  0
    3.1160   -5.9644    1.9147 C   0  0  0  0  0  0  0  0  0  0  0  0
    2.2390   -8.4096    6.1062 C   0  0  0  0  0  0  0  0  0  0  0  0
    0.2698   -7.4909    4.7876 C   0  0  0  0  0  0  0  0  0  0  0  0
    0.8727   -8.2123    5.8252 C   0  0  0  0  0  0  0  0  0  0  0  0
    0.7792   -6.1605    2.7853 C   0  0  0  0  0  0  0  0  0  0  0  0
    0.1276   -8.9032    6.7681 C   0  0  0  0  0  0  0  0  0  0  0  0
    4.8786   -5.7837    3.5653 C   0  0  0  0  0  0  0  0  0  0  0  0
    2.3203   -9.1904    7.2359 C   0  0  0  0  0  0  0  0  0  0  0  0
    1.7775   -3.8552    2.3610 C   0  0  0  0  0  0  0  0  0  0  0  0
   -1.1329   -7.5061    4.7410 C   0  0  0  0  0  0  0  0  0  0  0  0
   -1.2671   -8.9307    6.7276 C   0  0  0  0  0  0  0  0  0  0  0  0
   -1.8816   -8.2177    5.6896 C   0  0  0  0  0  0  0  0  0  0  0  0
    0.5681   -1.9728    3.4422 C   0  0  2  0  0  0  0  0  0  0  0  0
   -0.3205   -1.8912    4.6957 C   0  0  0  0  0  0  0  0  0  0  0  0
    0.0477   -1.0833    2.3158 C   0  0  0  0  0  0  0  0  0  0  0  0
  1 18  2  0  0  0  0
  2 23  1  0  0  0  0
  3 10  1  0  0  0  0
  3 16  1  0  0  0  0
  4 15  1  0  0  0  0
  4 17  1  0  0  0  0
  5 18  1  0  0  0  0
  6  3  1  6  0  0  0
  6  7  1  0  0  0  0
  6  8  1  0  0  0  0
  7 12  1  0  0  0  0
  7 14  2  0  0  0  0
  8 11  1  0  0  0  0
  9 10  1  0  0  0  0
  9 14  1  0  0  0  0
  9 18  1  1  0  0  0
 11 13  1  0  0  0  0
 11 17  2  0  0  0  0
 12 13  2  0  0  0  0
 12 19  1  0  0  0  0
 13 15  1  0  0  0  0
 15 20  2  0  0  0  0
 19 21  2  0  0  0  0
 20 21  1  0  0  0  0
 22 24  1  6  0  0  0
 22 23  1  0  0  0  0
 22  5  1  0  0  0  0
M  END
