153
 OpenBabel10141417493D

 29 31  0  0  1  0  0  0  0  0999 V2000
    0.8424    8.0955   -2.1805 O   0  0  0  0  0  0  0  0  0  0  0  0
   -7.8210    5.6887    0.3588 C   0  0  2  0  0  0  0  0  0  0  0  0
   -8.5198    5.0966   -0.9278 C   0  0  2  0  0  0  0  0  0  0  0  0
   -6.5701    4.7642    0.6309 C   0  0  1  0  0  0  0  0  0  0  0  0
   -8.0923    3.6126   -0.8501 C   0  0  0  0  0  0  0  0  0  0  0  0
   -6.6248    3.6778   -0.4516 C   0  0  0  0  0  0  0  0  0  0  0  0
   -7.4108    7.1757    0.2886 C   0  0  0  0  0  0  0  0  0  0  0  0
   -8.2277    5.6822   -2.3566 C   0  0  2  0  0  0  0  0  0  0  0  0
   -5.3017    5.6000    0.7896 C   0  0  0  0  0  0  0  0  0  0  0  0
   -8.8145    5.5309    1.5468 C   0  0  0  0  0  0  0  0  0  0  0  0
   -6.5761    7.6465    1.4870 C   0  0  0  0  0  0  0  0  0  0  0  0
   -5.4843    6.6480    1.8707 C   0  0  0  0  0  0  0  0  0  0  0  0
   -8.5710    7.1688   -2.5368 C   0  0  0  0  0  0  0  0  0  0  0  0
   -9.0896    4.9716   -3.3996 C   0  0  0  0  0  0  0  0  0  0  0  0
   -4.1952    5.4824    0.0382 C   0  0  0  0  0  0  0  0  0  0  0  0
   -8.7067    4.6975   -4.6599 C   0  0  0  0  0  0  0  0  0  0  0  0
   -3.1034    6.4408    0.0014 C   0  0  0  0  0  0  0  0  0  0  0  0
   -9.6535    4.1624   -5.7228 C   0  0  1  0  0  0  0  0  0  0  0  0
   -1.8399    6.1851   -0.3630 C   0  0  0  0  0  0  0  0  0  0  0  0
   -9.7557    5.1265   -6.9451 C   0  0  0  0  0  0  0  0  0  0  0  0
   -0.8239    7.2788   -0.6048 C   0  0  0  0  0  0  0  0  0  0  0  0
   -9.2850    2.7257   -6.1054 C   0  0  0  0  0  0  0  0  0  0  0  0
   -1.2902    4.8603   -0.6288 C   0  0  0  0  0  0  0  0  0  0  0  0
   -0.2426    7.1807   -2.0266 C   0  0  2  0  0  0  0  0  0  0  0  0
   -0.7676    4.6937   -2.0313 C   0  0  0  0  0  0  0  0  0  0  0  0
    0.2716    5.7706   -2.3444 C   0  0  0  0  0  0  0  0  0  0  0  0
   -8.4410    5.3167   -7.7114 C   0  0  0  0  0  0  0  0  0  0  0  0
  -10.8526    4.6912   -7.9267 C   0  0  0  0  0  0  0  0  0  0  0  0
   -1.1723    3.9300    0.3257 C   0  0  0  0  0  0  0  0  0  0  0  0
  2  3  1  0  0  0  0
  2  4  1  0  0  0  0
  2  7  1  0  0  0  0
  2 10  1  6  0  0  0
  3  5  1  6  0  0  0
  3  8  1  0  0  0  0
  4  6  1  6  0  0  0
  4  9  1  0  0  0  0
  5  6  1  0  0  0  0
  7 11  1  0  0  0  0
  8 13  1  1  0  0  0
  8 14  1  0  0  0  0
  9 12  1  0  0  0  0
  9 15  2  0  0  0  0
 11 12  1  0  0  0  0
 14 16  2  0  0  0  0
 15 17  1  0  0  0  0
 17 19  2  0  0  0  0
 18 16  1  1  0  0  0
 18 20  1  0  0  0  0
 18 22  1  0  0  0  0
 19 21  1  0  0  0  0
 19 23  1  0  0  0  0
 20 27  1  0  0  0  0
 20 28  1  0  0  0  0
 21 24  1  0  0  0  0
 23 25  1  0  0  0  0
 23 29  2  0  0  0  0
 24  1  1  1  0  0  0
 24 26  1  0  0  0  0
 25 26  1  0  0  0  0
M  END
