
 OpenBabel10141417503D

 44 49  0  0  1  0  0  0  0  0999 V2000
   -2.2885    1.3727   -0.1636 C   0  0  0  0  0  0  0  0  0  0  0  0
   -3.4484    0.5842   -0.2492 C   0  0  0  0  0  0  0  0  0  0  0  0
   -3.4460   -0.7834    0.0699 C   0  0  0  0  0  0  0  0  0  0  0  0
   -2.2314   -1.3210    0.4929 C   0  0  0  0  0  0  0  0  0  0  0  0
   -1.8631   -2.5855    0.8999 N   0  0  0  0  0  0  0  0  0  0  0  0
   -0.5271   -2.6092    1.2428 C   0  0  0  0  0  0  0  0  0  0  0  0
   -0.0273   -1.3419    1.0533 C   0  0  0  0  0  0  0  0  0  0  0  0
   -1.0667    0.8156    0.2358 C   0  0  0  0  0  0  0  0  0  0  0  0
   -1.0922   -0.5448    0.5808 C   0  0  0  0  0  0  0  0  0  0  0  0
    1.3248   -0.7416    1.2404 C   0  0  0  0  0  0  0  0  0  0  0  0
    0.2414    1.5465    0.4725 C   0  0  2  0  0  0  0  0  0  0  0  0
    1.4999    0.5798    0.4011 C   0  0  2  0  0  0  0  0  0  0  0  0
    2.0603    0.3545   -0.9658 N   0  0  0  0  0  0  0  0  0  0  0  0
    2.2955    1.6285   -1.6620 C   0  0  0  0  0  0  0  0  0  0  0  0
    1.0677    2.5408   -1.7430 C   0  0  1  0  0  0  0  0  0  0  0  0
    0.4952    2.8170   -0.3508 C   0  0  0  0  0  0  0  0  0  0  0  0
    1.4991    3.8483   -2.3953 C   0  0  0  0  0  0  0  0  0  0  0  0
    1.4018    3.8506   -3.7633 N   0  0  0  0  0  0  0  0  0  0  0  0
    1.2969   -0.5784   -1.7983 C   0  0  0  0  0  0  0  0  0  0  0  0
    1.9317    4.8000   -1.7540 O   0  0  0  0  0  0  0  0  0  0  0  0
    1.7543    5.0060   -4.5709 C   0  0  1  0  0  0  0  0  0  0  0  0
    1.0169    6.2934   -4.1516 C   0  0  0  0  0  0  0  0  0  0  0  0
    3.1301    5.3265   -4.3362 O   0  0  0  0  0  0  0  0  0  0  0  0
    3.2584    6.7355   -4.1575 C   0  0  2  0  0  0  0  0  0  0  0  0
    1.9495    7.3178   -4.1722 N   0  0  0  0  0  0  0  0  0  0  0  0
    1.7493    8.6049   -3.4742 C   0  0  2  0  0  0  0  0  0  0  0  0
    2.1536    8.4877   -1.9835 C   0  0  0  0  0  0  0  0  0  0  0  0
    4.0724    7.1519   -2.8851 C   0  0  1  0  0  0  0  0  0  0  0  0
    3.2714    7.7019   -1.7856 N   0  0  0  0  0  0  0  0  0  0  0  0
    3.8638    7.4350   -0.4910 C   0  0  0  0  0  0  0  0  0  0  0  0
    5.1857    6.7467   -0.8222 C   0  0  0  0  0  0  0  0  0  0  0  0
    4.9289    6.0979   -2.1874 C   0  0  0  0  0  0  0  0  0  0  0  0
    3.9027    7.2745   -5.2974 O   0  0  0  0  0  0  0  0  0  0  0  0
   -0.1721    6.3918   -3.8926 O   0  0  0  0  0  0  0  0  0  0  0  0
    1.6380    9.1479   -1.0864 O   0  0  0  0  0  0  0  0  0  0  0  0
    0.3744    9.2378   -3.6538 C   0  0  0  0  0  0  0  0  0  0  0  0
    1.5251    4.7331   -6.0926 C   0  0  0  0  0  0  0  0  0  0  0  0
    0.0475    4.5035   -6.4507 C   0  0  0  0  0  0  0  0  0  0  0  0
    2.3320    3.5343   -6.6169 C   0  0  0  0  0  0  0  0  0  0  0  0
    4.8526    0.3973    1.2759 O   0  0  0  0  0  0  0  0  0  0  0  0
    6.1630   -0.0672    0.4564 S   0  0  0  0  0  0  0  0  0  0  0  0
    5.3635   -1.1079   -0.7405 C   0  0  0  0  0  0  0  0  0  0  0  0
    6.6496    1.1297   -0.2123 O   0  0  0  0  0  0  0  0  0  0  0  0
    6.9869   -0.8616    1.3219 O   0  0  0  0  0  0  0  0  0  0  0  0
  1  2  2  0  0  0  0
  2  3  1  0  0  0  0
  3  4  2  0  0  0  0
  4  5  1  0  0  0  0
  5  6  1  0  0  0  0
  6  7  2  0  0  0  0
  7 10  1  0  0  0  0
  7  9  1  0  0  0  0
  8  1  1  0  0  0  0
  8  9  2  0  0  0  0
  8 11  1  0  0  0  0
  9  4  1  0  0  0  0
 11 12  1  0  0  0  0
 11 16  1  1  0  0  0
 12 10  1  6  0  0  0
 12 13  1  0  0  0  0
 13 14  1  0  0  0  0
 13 19  1  0  0  0  0
 14 15  1  0  0  0  0
 15 16  1  0  0  0  0
 15 17  1  1  0  0  0
 17 18  1  0  0  0  0
 17 20  2  0  0  0  0
 21 22  1  0  0  0  0
 21 18  1  1  0  0  0
 21 37  1  0  0  0  0
 22 25  1  0  0  0  0
 22 34  2  0  0  0  0
 23 21  1  0  0  0  0
 24 23  1  0  0  0  0
 24 25  1  0  0  0  0
 24 28  1  0  0  0  0
 24 33  1  1  0  0  0
 25 26  1  0  0  0  0
 26 27  1  0  0  0  0
 26 36  1  1  0  0  0
 27 29  1  0  0  0  0
 27 35  2  0  0  0  0
 28 29  1  1  0  0  0
 29 30  1  0  0  0  0
 30 31  1  0  0  0  0
 31 32  1  0  0  0  0
 32 28  1  0  0  0  0
 37 38  1  0  0  0  0
 37 39  1  0  0  0  0
 41 40  1  0  0  0  0
 41 43  2  0  0  0  0
 41 44  2  0  0  0  0
 42 41  1  0  0  0  0
A   36
R
M  END
