
 OpenBabel10141417503D

 33 36  0  0  1  0  0  0  0  0999 V2000
   -3.5891   -4.2227  -11.1792 C   0  0  0  0  0  0  0  0  0  0  0  0
   -3.9045   -3.9313   -9.9053 C   0  0  0  0  0  0  0  0  0  0  0  0
   -4.7789   -5.0115   -9.2973 C   0  0  1  0  0  0  0  0  0  0  0  0
   -4.1316   -5.4346  -11.5812 N   0  0  0  0  0  0  0  0  0  0  0  0
   -5.0109   -5.9582  -10.4934 C   0  0  1  0  0  0  0  0  0  0  0  0
   -4.3212   -7.3431  -10.7218 C   0  0  2  0  0  0  0  0  0  0  0  0
   -3.3366   -6.5448  -11.5928 C   0  0  0  0  0  0  0  0  0  0  0  0
   -5.0957   -8.3863  -11.5107 C   0  0  2  0  0  0  0  0  0  0  0  0
   -6.2990   -8.6722  -10.8107 O   0  0  0  0  0  0  0  0  0  0  0  0
   -4.2671   -9.6572  -11.6404 C   0  0  0  0  0  0  0  0  0  0  0  0
   -2.2660   -6.7128  -12.1265 O   0  0  0  0  0  0  0  0  0  0  0  0
   -2.7853   -3.4171  -12.1440 C   0  0  0  0  0  0  0  0  0  0  0  0
   -2.5681   -2.2244  -12.0339 O   0  0  0  0  0  0  0  0  0  0  0  0
   -2.3924   -4.1088  -13.2393 O   0  0  0  0  0  0  0  0  0  0  0  0
   -4.1637   -5.7391   -8.1097 C   0  0  0  0  0  0  0  0  0  0  0  0
   -3.3550   -2.5721   -8.9889 S   0  0  0  0  0  0  0  0  0  0  0  0
   -4.9223   -1.7825   -8.5319 C   0  0  2  0  0  0  0  0  0  0  0  0
   -5.7653   -1.3042   -9.7243 C   0  0  0  0  0  0  0  0  0  0  0  0
   -6.3306    0.0098   -9.3601 N   0  0  0  0  0  0  0  0  0  0  0  0
   -6.1131    0.1293   -7.8991 C   0  0  1  0  0  0  0  0  0  0  0  0
   -4.7587   -0.5284   -7.6850 C   0  0  0  0  0  0  0  0  0  0  0  0
   -6.1757    1.5673   -7.3925 C   0  0  0  0  0  0  0  0  0  0  0  0
   -5.9646    1.7924   -6.2017 O   0  0  0  0  0  0  0  0  0  0  0  0
   -6.5368    2.4916   -8.3597 N   0  0  0  0  0  0  0  0  0  0  0  0
   -6.7621    3.8710   -8.1698 C   0  0  0  0  0  0  0  0  0  0  0  0
   -6.7110    4.4663   -6.9048 C   0  0  0  0  0  0  0  0  0  0  0  0
   -6.8333    5.8449   -6.7465 C   0  0  0  0  0  0  0  0  0  0  0  0
   -7.0756    6.6460   -7.8524 C   0  0  0  0  0  0  0  0  0  0  0  0
   -7.2117    6.0634   -9.1153 C   0  0  0  0  0  0  0  0  0  0  0  0
   -7.0348    4.6784   -9.2825 C   0  0  0  0  0  0  0  0  0  0  0  0
   -7.5254    6.9154  -10.2831 C   0  0  0  0  0  0  0  0  0  0  0  0
   -8.1939    8.0258   -9.9198 O   0  0  0  0  0  0  0  0  0  0  0  0
   -7.2746    6.6667  -11.4490 O   0  0  0  0  0  0  0  0  0  0  0  0
  2  1  2  0  0  0  0
  3  2  1  0  0  0  0
  3 15  1  1  0  0  0
  4  1  1  0  0  0  0
  5  3  1  0  0  0  0
  5  4  1  6  0  0  0
  6  5  1  0  0  0  0
  6  7  1  6  0  0  0
  7  4  1  0  0  0  0
  8  9  1  1  0  0  0
  8  6  1  0  0  0  0
 10  8  1  0  0  0  0
 11  7  2  0  0  0  0
 12  1  1  0  0  0  0
 13 12  2  0  0  0  0
 14 12  1  0  0  0  0
 16  2  1  0  0  0  0
 17 16  1  6  0  0  0
 18 17  1  0  0  0  0
 19 18  1  0  0  0  0
 20 19  1  0  0  0  0
 20 22  1  6  0  0  0
 21 17  1  0  0  0  0
 21 20  1  0  0  0  0
 23 22  2  0  0  0  0
 24 22  1  0  0  0  0
 25 24  1  0  0  0  0
 26 25  2  0  0  0  0
 27 26  1  0  0  0  0
 28 27  2  0  0  0  0
 29 28  1  0  0  0  0
 30 25  1  0  0  0  0
 30 29  2  0  0  0  0
 31 29  1  0  0  0  0
 32 31  1  0  0  0  0
 33 31  2  0  0  0  0
M  END
