12560
 OpenBabel10141417493D

 51 53  0  0  1  0  0  0  0  0999 V2000
   -1.7628   -1.2104   -1.8840 O   0  0  0  0  0  0  0  0  0  0  0  0
   -2.5292   -1.4929    1.6037 O   0  0  0  0  0  0  0  0  0  0  0  0
   -1.3349    1.3445   -3.5021 O   0  0  0  0  0  0  0  0  0  0  0  0
    0.3504   -2.0583   -2.3896 O   0  0  0  0  0  0  0  0  0  0  0  0
   -3.2908   -1.1883    3.8415 O   0  0  0  0  0  0  0  0  0  0  0  0
   -4.3716    2.6285    1.5710 O   0  0  0  0  0  0  0  0  0  0  0  0
   -1.7405   -4.5854    3.3931 O   0  0  0  0  0  0  0  0  0  0  0  0
   -2.1628   -4.2955   -1.0712 O   0  0  0  0  0  0  0  0  0  0  0  0
   -1.9429   -3.8209    6.0052 O   0  0  0  0  0  0  0  0  0  0  0  0
   -7.1709    5.2305    1.7330 O   0  0  0  0  0  0  0  0  0  0  0  0
   -7.0337    5.3768   -0.8710 O   0  0  0  0  0  0  0  0  0  0  0  0
   -3.2116    5.1613   -0.2670 O   0  0  0  0  0  0  0  0  0  0  0  0
   -5.6707    0.8140    2.0688 O   0  0  0  0  0  0  0  0  0  0  0  0
   -1.5251   -5.3796   -4.1327 N   0  0  0  0  0  0  0  0  0  0  0  0
   -1.2990    0.0697   -1.3784 C   0  0  2  0  0  0  0  0  0  0  0  0
   -1.1913    0.0849    0.2253 C   0  0  2  0  0  0  0  0  0  0  0  0
   -2.0304    1.2543   -2.2296 C   0  0  1  0  0  0  0  0  0  0  0  0
   -2.4449   -0.0807    1.2256 C   0  0  1  0  0  0  0  0  0  0  0  0
   -1.8540    2.6623   -1.6073 C   0  0  0  0  0  0  0  0  0  0  0  0
   -3.7484    0.4818    0.6335 C   0  0  2  0  0  0  0  0  0  0  0  0
   -2.5528    3.9262   -2.1726 C   0  0  2  0  0  0  0  0  0  0  0  0
   -0.8678   -2.3413   -1.7196 C   0  0  2  0  0  0  0  0  0  0  0  0
   -3.5137   -1.8273    2.6002 C   0  0  2  0  0  0  0  0  0  0  0  0
   -3.0502   -4.1389    3.8256 C   0  0  2  0  0  0  0  0  0  0  0  0
   -0.2863    1.2463    0.6888 C   0  0  0  0  0  0  0  0  0  0  0  0
   -1.6148   -3.6165   -2.2325 C   0  0  1  0  0  0  0  0  0  0  0  0
   -0.7791   -4.6537   -3.0521 C   0  0  2  0  0  0  0  0  0  0  0  0
   -3.7791   -3.3519    2.7051 C   0  0  0  0  0  0  0  0  0  0  0  0
   -3.4728    0.9330   -2.6465 C   0  0  0  0  0  0  0  0  0  0  0  0
   -2.8314   -3.2176    5.0592 C   0  0  2  0  0  0  0  0  0  0  0  0
   -5.0685    3.9101   -1.1523 C   0  0  2  0  0  0  0  0  0  0  0  0
   -6.4172    4.1345    1.1344 C   0  0  1  0  0  0  0  0  0  0  0  0
    0.5432   -4.0892   -3.5969 C   0  0  0  0  0  0  0  0  0  0  0  0
   -5.8947    4.8035   -0.1838 C   0  0  2  0  0  0  0  0  0  0  0  0
   -2.3063   -1.8405    4.6287 C   0  0  2  0  0  0  0  0  0  0  0  0
   -3.6202    4.4397   -1.1917 C   0  0  0  0  0  0  0  0  0  0  0  0
    1.1973   -3.1880   -2.5608 C   0  0  1  0  0  0  0  0  0  0  0  0
   -5.2641    3.6803    2.1178 C   0  0  1  0  0  0  0  0  0  0  0  0
   -4.6907    1.2810    1.5630 C   0  0  0  0  0  0  0  0  0  0  0  0
   -4.5166   -0.5855   -0.1574 C   0  0  0  0  0  0  0  0  0  0  0  0
   -2.8555    4.0277   -3.6541 C   0  0  0  0  0  0  0  0  0  0  0  0
   -3.9089   -5.3539    4.2675 C   0  0  0  0  0  0  0  0  0  0  0  0
   -5.7635    3.7558   -2.5022 C   0  0  0  0  0  0  0  0  0  0  0  0
   -7.4171    3.0097    0.8459 C   0  0  0  0  0  0  0  0  0  0  0  0
   -5.6615    3.3856    3.5916 C   0  0  0  0  0  0  0  0  0  0  0  0
   -2.0320   -0.9362    5.8259 C   0  0  0  0  0  0  0  0  0  0  0  0
    2.5329   -2.6615   -3.0725 C   0  0  0  0  0  0  0  0  0  0  0  0
   -2.0946   -4.4973   -5.1569 C   0  0  0  0  0  0  0  0  0  0  0  0
   -2.5717   -6.2690   -3.6264 C   0  0  0  0  0  0  0  0  0  0  0  0
   -6.6002    4.3719    4.2808 C   0  0  0  0  0  0  0  0  0  0  0  0
   -1.7081   -5.7191    2.5261 C   0  0  0  0  0  0  0  0  0  0  0  0
  4 22  1  0  0  0  0
  4 37  1  0  0  0  0
  5 23  1  0  0  0  0
  5 35  1  0  0  0  0
  6 38  1  0  0  0  0
  6 39  1  0  0  0  0
  7 51  1  0  0  0  0
 12 36  2  0  0  0  0
 13 39  2  0  0  0  0
 14 48  1  0  0  0  0
 14 49  1  0  0  0  0
 15 16  1  0  0  0  0
 15 17  1  0  0  0  0
 15  1  1  1  0  0  0
 16 18  1  0  0  0  0
 16 25  1  6  0  0  0
 17 19  1  0  0  0  0
 17 29  1  6  0  0  0
 17  3  1  0  0  0  0
 18 20  1  0  0  0  0
 18  2  1  6  0  0  0
 19 21  1  0  0  0  0
 20 39  1  0  0  0  0
 20 40  1  1  0  0  0
 21 36  1  0  0  0  0
 21 41  1  6  0  0  0
 22  1  1  6  0  0  0
 22 26  1  0  0  0  0
 23  2  1  6  0  0  0
 23 28  1  0  0  0  0
 24 28  1  0  0  0  0
 24 30  1  0  0  0  0
 24 42  1  1  0  0  0
 24  7  1  0  0  0  0
 26 27  1  0  0  0  0
 26  8  1  1  0  0  0
 27 14  1  6  0  0  0
 27 33  1  0  0  0  0
 30  9  1  1  0  0  0
 30 35  1  0  0  0  0
 31 34  1  0  0  0  0
 31 36  1  0  0  0  0
 31 43  1  6  0  0  0
 32 34  1  0  0  0  0
 32 38  1  0  0  0  0
 32 44  1  6  0  0  0
 32 10  1  0  0  0  0
 33 37  1  0  0  0  0
 34 11  1  6  0  0  0
 35 46  1  1  0  0  0
 37 47  1  6  0  0  0
 38 45  1  1  0  0  0
 45 50  1  0  0  0  0
M  END
