
 OpenBabel10141417483D

 20 19  0  0  1  0  0  0  0  0999 V2000
    0.7427    0.4805    0.6232 C   0  0  1  0  0  0  0  0  0  0  0  0
    0.9293   -1.0351    0.9462 C   0  0  2  0  0  0  0  0  0  0  0  0
    1.0810    1.2495    1.7868 O   0  0  0  0  0  0  0  0  0  0  0  0
    2.2942   -1.3248    1.2770 O   0  0  0  0  0  0  0  0  0  0  0  0
    0.0617   -1.4866    2.1481 C   0  0  0  0  0  0  0  0  0  0  0  0
    1.5845    0.9876   -0.5728 C   0  0  0  0  0  0  0  0  0  0  0  0
    2.9750    0.9284   -0.2565 O   0  0  0  0  0  0  0  0  0  0  0  0
   -1.3094   -1.1947    1.9310 O   0  0  0  0  0  0  0  0  0  0  0  0
   -2.1338   -1.7410    2.9467 N   0  3  0  0  0  0  0  0  0  0  0  0
   -3.2425   -1.2043    3.0009 O   0  5  0  0  0  0  0  0  0  0  0  0
   -1.6750   -2.6736    3.6084 O   0  0  0  0  0  0  0  0  0  0  0  0
    2.6478   -2.6853    1.0452 N   0  3  0  0  0  0  0  0  0  0  0  0
    3.5551   -3.0757    1.7697 O   0  5  0  0  0  0  0  0  0  0  0  0
    2.0057   -3.2762    0.1753 O   0  0  0  0  0  0  0  0  0  0  0  0
    0.4346    2.5180    1.8402 N   0  3  0  0  0  0  0  0  0  0  0  0
   -0.4521    2.7246    1.0202 O   0  5  0  0  0  0  0  0  0  0  0  0
    0.8798    3.2351    2.7312 O   0  0  0  0  0  0  0  0  0  0  0  0
    3.7830    1.6478   -1.1751 N   0  3  0  0  0  0  0  0  0  0  0  0
    3.2127    2.1920   -2.1204 O   0  5  0  0  0  0  0  0  0  0  0  0
    4.9778    1.6047   -0.8896 O   0  0  0  0  0  0  0  0  0  0  0  0
  1  6  1  6  0  0  0
  1  2  1  0  0  0  0
  1  3  1  0  0  0  0
  2  5  1  6  0  0  0
  2  4  1  0  0  0  0
  7  6  1  0  0  0  0
  8  5  1  0  0  0  0
  9  8  1  0  0  0  0
 10  9  1  0  0  0  0
 11  9  2  0  0  0  0
 12  4  1  0  0  0  0
 13 12  1  0  0  0  0
 14 12  2  0  0  0  0
 15  3  1  0  0  0  0
 16 15  1  0  0  0  0
 17 15  2  0  0  0  0
 18  7  1  0  0  0  0
 19 18  1  0  0  0  0
 20 18  2  0  0  0  0
M  CHG  8   9   1  10  -1  12   1  13  -1  15   1  16  -1  18   1  19  -1
M  END
