3261
 OpenBabel10141417493D

 21 24  0  0  0  0  0  0  0  0999 V2000
    0.9371   -0.1082    0.2419 Cl  0  0  0  0  0  0  0  0  0  0  0  0
    6.8624    0.0045    0.0664 N   0  0  0  0  0  0  0  0  0  0  0  0
    6.5049   -3.0149   -0.0626 N   0  0  0  0  0  0  0  0  0  0  0  0
    8.9528   -0.5592    0.4679 N   0  0  0  0  0  0  0  0  0  0  0  0
    8.9369    0.7485    0.0567 N   0  0  0  0  0  0  0  0  0  0  0  0
    5.4496   -0.0429    0.0095 C   0  0  0  0  0  0  0  0  0  0  0  0
    4.7568   -1.2572   -0.1645 C   0  0  0  0  0  0  0  0  0  0  0  0
    5.4214   -2.5400   -0.5739 C   0  0  0  0  0  0  0  0  0  0  0  0
    7.7095   -0.9966    0.4804 C   0  0  0  0  0  0  0  0  0  0  0  0
    7.2165   -2.2973    0.9820 C   0  0  0  0  0  0  0  0  0  0  0  0
    4.7988   -3.3433   -1.6790 C   0  0  0  0  0  0  0  0  0  0  0  0
    4.7270    1.1516    0.1849 C   0  0  0  0  0  0  0  0  0  0  0  0
    3.3539   -1.2667   -0.0639 C   0  0  0  0  0  0  0  0  0  0  0  0
    7.6857    1.0764   -0.1639 C   0  0  0  0  0  0  0  0  0  0  0  0
    3.3319    1.1281    0.2495 C   0  0  0  0  0  0  0  0  0  0  0  0
    2.6533   -0.0808    0.1420 C   0  0  0  0  0  0  0  0  0  0  0  0
    4.2190   -2.7223   -2.7931 C   0  0  0  0  0  0  0  0  0  0  0  0
    4.8372   -4.7411   -1.6064 C   0  0  0  0  0  0  0  0  0  0  0  0
    3.6526   -3.4974   -3.8075 C   0  0  0  0  0  0  0  0  0  0  0  0
    4.2716   -5.5113   -2.6236 C   0  0  0  0  0  0  0  0  0  0  0  0
    3.6757   -4.8892   -3.7201 C   0  0  0  0  0  0  0  0  0  0  0  0
  1 16  1  0  0  0  0
  2  6  1  0  0  0  0
  2  9  1  0  0  0  0
  2 14  1  0  0  0  0
  3  8  2  0  0  0  0
  3 10  1  0  0  0  0
  4  5  1  0  0  0  0
  4  9  2  0  0  0  0
  5 14  2  0  0  0  0
  6  7  2  0  0  0  0
  6 12  1  0  0  0  0
  7  8  1  0  0  0  0
  7 13  1  0  0  0  0
  8 11  1  0  0  0  0
  9 10  1  0  0  0  0
 11 17  2  0  0  0  0
 11 18  1  0  0  0  0
 12 15  2  0  0  0  0
 13 16  2  0  0  0  0
 15 16  1  0  0  0  0
 17 19  1  0  0  0  0
 18 20  2  0  0  0  0
 19 21  2  0  0  0  0
 20 21  1  0  0  0  0
M  END
