
 OpenBabel10141417493D

 29 32  0  0  1  0  0  0  0  0999 V2000
   -2.4364    0.3287   -2.1234 C   0  0  0  0  0  0  0  0  0  0  0  0
   -3.3589    4.0469   -1.5083 C   0  0  0  0  0  0  0  0  0  0  0  0
   -2.6141   -0.2538    0.2365 C   0  0  1  0  0  0  0  0  0  0  0  0
   -0.9723    1.6806    0.3298 C   0  0  0  0  0  0  0  0  0  0  0  0
   -2.1672   -0.7927   -1.1203 C   0  0  0  0  0  0  0  0  0  0  0  0
   -0.5906    4.5403   -2.2495 C   0  0  0  0  0  0  0  0  0  0  0  0
   -0.6246    3.0625   -0.2190 C   0  0  0  0  0  0  0  0  0  0  0  0
   -3.0364    5.2858   -2.3233 C   0  0  0  0  0  0  0  0  0  0  0  0
   -1.5599    5.5219   -2.4922 C   0  0  0  0  0  0  0  0  0  0  0  0
    0.7594    4.8407   -2.5109 C   0  0  0  0  0  0  0  0  0  0  0  0
   -1.1778    6.7677   -2.9973 C   0  0  0  0  0  0  0  0  0  0  0  0
    1.1309    6.0938   -3.0203 C   0  0  0  0  0  0  0  0  0  0  0  0
   -2.4818    2.8697   -1.9594 C   0  0  2  0  0  0  0  0  0  0  0  0
   -0.9847    3.1786   -1.7082 C   0  0  1  0  0  0  0  0  0  0  0  0
   -2.4556    1.2838    0.1311 C   0  0  2  0  0  0  0  0  0  0  0  0
   -3.3286    1.9903    1.1830 C   0  0  0  0  0  0  0  0  0  0  0  0
   -2.9333    1.5475   -1.3176 C   0  0  1  0  0  0  0  0  0  0  0  0
    0.5814    8.3076   -3.8158 O   0  0  0  0  0  0  0  0  0  0  0  0
    0.1553    7.0579   -3.2690 C   0  0  0  0  0  0  0  0  0  0  0  0
   -3.9678   -0.6404    0.4644 O   0  0  0  0  0  0  0  0  0  0  0  0
   -0.2490    9.4356   -3.9823 C   0  0  0  0  0  0  0  0  0  0  0  0
    0.4221   10.5710   -4.4583 N   0  0  0  0  0  0  0  0  0  0  0  0
   -0.3624   11.8137   -4.2843 C   0  0  0  0  0  0  0  0  0  0  0  0
    0.1776   13.2209   -4.5674 C   0  0  0  0  0  0  0  0  0  0  0  0
    1.2105   10.2993   -5.6783 C   0  0  0  0  0  0  0  0  0  0  0  0
    2.2068   11.3244   -6.1936 C   0  0  0  0  0  0  0  0  0  0  0  0
    0.0631   13.7831   -6.2548 Cl  0  0  0  0  0  0  0  0  0  0  0  0
    3.3097   11.9435   -4.9529 Cl  0  0  0  0  0  0  0  0  0  0  0  0
   -1.4815    9.4633   -3.7230 O   0  0  0  0  0  0  0  0  0  0  0  0
  2  8  1  0  0  0  0
  3  5  1  0  0  0  0
  3 20  1  6  0  0  0
  4  7  1  0  0  0  0
  5  1  1  0  0  0  0
  6  9  1  0  0  0  0
  6 10  2  0  0  0  0
  8  9  1  0  0  0  0
  9 11  2  0  0  0  0
 10 12  1  0  0  0  0
 11 19  1  0  0  0  0
 12 19  2  0  0  0  0
 13 14  1  0  0  0  0
 13  2  1  6  0  0  0
 14  6  1  1  0  0  0
 14  7  1  0  0  0  0
 15  3  1  0  0  0  0
 15  4  1  0  0  0  0
 15 16  1  1  0  0  0
 17 13  1  0  0  0  0
 17 15  1  0  0  0  0
 17  1  1  1  0  0  0
 18 21  1  0  0  0  0
 19 18  1  0  0  0  0
 21 22  1  0  0  0  0
 21 29  2  0  0  0  0
 22 23  1  0  0  0  0
 22 25  1  0  0  0  0
 23 24  1  0  0  0  0
 24 27  1  0  0  0  0
 25 26  1  0  0  0  0
 26 28  1  0  0  0  0
M  END
