655
 OpenBabel10141417493D

 20 23  0  0  1  0  0  0  0  0999 V2000
    1.3569   -2.2047    0.4900 O   0  0  0  0  0  0  0  0  0  0  0  0
   -9.5630   -2.6257    0.9335 O   0  0  0  0  0  0  0  0  0  0  0  0
   -2.0066   -1.9535   -0.4652 C   0  0  2  0  0  0  0  0  0  0  0  0
   -0.9799   -2.9517    0.0953 C   0  0  2  0  0  0  0  0  0  0  0  0
   -3.4704   -2.2956   -0.4362 C   0  0  1  0  0  0  0  0  0  0  0  0
   -3.9062   -2.8350    0.9252 C   0  0  2  0  0  0  0  0  0  0  0  0
   -1.4998   -3.6385    1.3886 C   0  0  0  0  0  0  0  0  0  0  0  0
   -1.7750   -0.7158    0.4277 C   0  0  0  0  0  0  0  0  0  0  0  0
   -3.0136   -4.0163    1.3564 C   0  0  0  0  0  0  0  0  0  0  0  0
   -3.9377   -3.2169   -1.5652 C   0  0  0  0  0  0  0  0  0  0  0  0
    0.1632   -1.9180    0.3115 C   0  0  0  0  0  0  0  0  0  0  0  0
   -0.3171   -0.4803    0.1787 C   0  0  0  0  0  0  0  0  0  0  0  0
   -0.5118   -4.0216   -0.8947 C   0  0  0  0  0  0  0  0  0  0  0  0
   -5.4184   -3.0091    0.8937 C   0  0  0  0  0  0  0  0  0  0  0  0
   -5.4482   -3.0295   -1.6784 C   0  0  0  0  0  0  0  0  0  0  0  0
   -6.1384   -3.0392   -0.3290 C   0  0  0  0  0  0  0  0  0  0  0  0
   -6.1280   -2.8961    2.0997 C   0  0  0  0  0  0  0  0  0  0  0  0
   -7.5366   -2.9203   -0.3151 C   0  0  0  0  0  0  0  0  0  0  0  0
   -7.5178   -2.7763    2.0966 C   0  0  0  0  0  0  0  0  0  0  0  0
   -8.2093   -2.7846    0.8933 C   0  0  0  0  0  0  0  0  0  0  0  0
  1 11  2  0  0  0  0
  2 20  1  0  0  0  0
  3  4  1  0  0  0  0
  3  5  1  0  0  0  0
  3  8  1  6  0  0  0
  4  7  1  0  0  0  0
  4 11  1  0  0  0  0
  4 13  1  6  0  0  0
  5  6  1  0  0  0  0
  5 10  1  1  0  0  0
  6  9  1  6  0  0  0
  6 14  1  0  0  0  0
  7  9  1  0  0  0  0
  8 12  1  0  0  0  0
 10 15  1  0  0  0  0
 11 12  1  0  0  0  0
 14 16  2  0  0  0  0
 14 17  1  0  0  0  0
 15 16  1  0  0  0  0
 16 18  1  0  0  0  0
 17 19  2  0  0  0  0
 18 20  2  0  0  0  0
 19 20  1  0  0  0  0
M  END
