
 OpenBabel10141417483D

 24 27  0  0  1  0  0  0  0  0999 V2000
   13.9191    4.2696   14.6036 S   0  0  0  0  0  0  0  0  0  0  0  0
   16.7847   15.8238   14.7230 O   0  0  0  0  0  0  0  0  0  0  0  0
   13.0538    5.6262   14.8450 O   0  0  0  0  0  0  0  0  0  0  0  0
   12.8772    3.1015   14.9882 O   0  0  0  0  0  0  0  0  0  0  0  0
   14.9504    4.1760   15.6173 O   0  0  0  0  0  0  0  0  0  0  0  0
   14.2224    4.1284   13.1982 O   0  0  0  0  0  0  0  0  0  0  0  0
   16.7751   12.5565   13.3173 C   0  0  2  0  0  0  0  0  0  0  0  0
   16.6356   13.3913   14.6140 C   0  0  2  0  0  0  0  0  0  0  0  0
   16.2217   11.1172   13.3597 C   0  0  1  0  0  0  0  0  0  0  0  0
   14.8801   10.9892   14.1207 C   0  0  2  0  0  0  0  0  0  0  0  0
   15.2927   13.1779   15.3263 C   0  0  0  0  0  0  0  0  0  0  0  0
   16.0590   13.4083   12.2555 C   0  0  0  0  0  0  0  0  0  0  0  0
   14.9240   11.7069   15.4809 C   0  0  0  0  0  0  0  0  0  0  0  0
   17.2509   10.1318   13.9356 C   0  0  0  0  0  0  0  0  0  0  0  0
   16.6556   14.8100   14.0470 C   0  0  0  0  0  0  0  0  0  0  0  0
   16.5016   14.8331   12.5491 C   0  0  0  0  0  0  0  0  0  0  0  0
   17.8206   13.2045   15.5636 C   0  0  0  0  0  0  0  0  0  0  0  0
   14.4474    9.5406   14.2964 C   0  0  0  0  0  0  0  0  0  0  0  0
   16.7821    8.6959   13.7264 C   0  0  0  0  0  0  0  0  0  0  0  0
   15.3484    8.4742   14.1361 C   0  0  0  0  0  0  0  0  0  0  0  0
   13.1157    9.2546   14.6380 C   0  0  0  0  0  0  0  0  0  0  0  0
   14.9023    7.1503   14.2988 C   0  0  0  0  0  0  0  0  0  0  0  0
   12.6891    7.9366   14.8161 C   0  0  0  0  0  0  0  0  0  0  0  0
   13.5797    6.8776   14.6452 C   0  0  0  0  0  0  0  0  0  0  0  0
  1  3  1  0  0  0  0
  1  4  1  0  0  0  0
  1  5  2  0  0  0  0
  1  6  2  0  0  0  0
  2 15  2  0  0  0  0
  3 24  1  0  0  0  0
  7  8  1  0  0  0  0
  7  9  1  0  0  0  0
  7 12  1  1  0  0  0
  8 11  1  0  0  0  0
  8 15  1  0  0  0  0
  8 17  1  1  0  0  0
  9 10  1  0  0  0  0
  9 14  1  6  0  0  0
 10 13  1  1  0  0  0
 10 18  1  0  0  0  0
 11 13  1  0  0  0  0
 12 16  1  0  0  0  0
 14 19  1  0  0  0  0
 15 16  1  0  0  0  0
 18 20  2  0  0  0  0
 18 21  1  0  0  0  0
 19 20  1  0  0  0  0
 20 22  1  0  0  0  0
 21 23  2  0  0  0  0
 22 24  2  0  0  0  0
 23 24  1  0  0  0  0
M  END
