402
 OpenBabel10141417493D

 27 30  0  0  1  0  0  0  0  0999 V2000
    1.0017    0.0664   -1.9390 Cl  0  0  0  0  0  0  0  0  0  0  0  0
    7.7743    1.0527   -0.1425 O   0  0  0  0  0  0  0  0  0  0  0  0
    5.8394    2.2383   -0.3385 O   0  0  0  0  0  0  0  0  0  0  0  0
    7.1617   -2.9865   -1.4058 O   0  0  0  0  0  0  0  0  0  0  0  0
    6.9986    2.2264    1.6515 N   0  0  0  0  0  0  0  0  0  0  0  0
    6.0096    0.5976    3.8547 N   0  0  0  0  0  0  0  0  0  0  0  0
    6.7815   -0.6708   -1.3948 N   0  0  0  0  0  0  0  0  0  0  0  0
   10.0646    0.6685   -2.1672 N   0  0  0  0  0  0  0  0  0  0  0  0
    9.9694   -2.2058   -2.0124 N   0  0  0  0  0  0  0  0  0  0  0  0
    4.9419    0.3464   -2.4223 N   0  0  0  0  0  0  0  0  0  0  0  0
    7.9691    1.5326    2.4947 C   0  0  0  0  0  0  0  0  0  0  0  0
    5.8234    2.6776    2.3916 C   0  0  0  0  0  0  0  0  0  0  0  0
    7.2932    0.3174    3.1655 C   0  0  0  0  0  0  0  0  0  0  0  0
    5.1233    1.4569    3.0307 C   0  0  0  0  0  0  0  0  0  0  0  0
    7.5942    0.5298   -1.4667 C   0  0  2  0  0  0  0  0  0  0  0  0
    6.8116    1.8718    0.3253 C   0  0  0  0  0  0  0  0  0  0  0  0
    6.2263    1.1635    5.1829 C   0  0  0  0  0  0  0  0  0  0  0  0
    8.9464   -0.0251   -1.8473 C   0  0  0  0  0  0  0  0  0  0  0  0
    8.9174   -1.4018   -1.7673 C   0  0  0  0  0  0  0  0  0  0  0  0
    7.5365   -1.8302   -1.4704 C   0  0  0  0  0  0  0  0  0  0  0  0
    5.3997   -0.6150   -1.5867 C   0  0  0  0  0  0  0  0  0  0  0  0
    4.5434   -1.4576   -0.8858 C   0  0  0  0  0  0  0  0  0  0  0  0
   11.1406   -0.1225   -2.4178 C   0  0  0  0  0  0  0  0  0  0  0  0
   11.0942   -1.5171   -2.3403 C   0  0  0  0  0  0  0  0  0  0  0  0
    3.1664   -1.2285   -0.9578 C   0  0  0  0  0  0  0  0  0  0  0  0
    3.6007    0.4958   -2.5338 C   0  0  0  0  0  0  0  0  0  0  0  0
    2.6841   -0.2391   -1.8050 C   0  0  0  0  0  0  0  0  0  0  0  0
  1 27  1  0  0  0  0
  2 16  1  0  0  0  0
  3 16  2  0  0  0  0
  4 20  2  0  0  0  0
  5 11  1  0  0  0  0
  5 12  1  0  0  0  0
  5 16  1  0  0  0  0
  6 13  1  0  0  0  0
  6 14  1  0  0  0  0
  6 17  1  0  0  0  0
  7 15  1  0  0  0  0
  7 20  1  0  0  0  0
  7 21  1  0  0  0  0
  8 18  2  0  0  0  0
  8 23  1  0  0  0  0
  9 19  2  0  0  0  0
  9 24  1  0  0  0  0
 10 21  2  0  0  0  0
 10 26  1  0  0  0  0
 11 13  1  0  0  0  0
 12 14  1  0  0  0  0
 15  2  1  1  0  0  0
 15 18  1  0  0  0  0
 18 19  1  0  0  0  0
 19 20  1  0  0  0  0
 21 22  1  0  0  0  0
 22 25  2  0  0  0  0
 23 24  2  0  0  0  0
 25 27  1  0  0  0  0
 26 27  2  0  0  0  0
M  END
