
 OpenBabel10141417493D

  3  2  0  0  0  0  0  0  0  0999 V2000
    1.0819    0.0421   -0.0420 O   0  0  0  0  0  0  0  0  0  0  0  0
    2.5016    0.0453   -0.0273 C   0  0  0  0  0  0  0  0  0  0  0  0
    3.0102   -0.2562   -1.4206 C   0  0  0  0  0  0  0  0  0  0  0  0
  1  2  1  0  0  0  0
  2  3  1  0  0  0  0
M  END
