903
 OpenBabel10141417503D

 19 19  0  0  0  0  0  0  0  0999 V2000
    2.6435   -0.9424    3.3271 Cl  0  0  0  0  0  0  0  0  0  0  0  0
    3.7837   -3.2980    1.5625 Cl  0  0  0  0  0  0  0  0  0  0  0  0
    5.3845   -2.3992   -0.7012 O   0  0  0  0  0  0  0  0  0  0  0  0
    3.3850    2.9949    1.6503 O   0  0  0  0  0  0  0  0  0  0  0  0
    8.2740   -2.7248   -2.8797 O   0  0  0  0  0  0  0  0  0  0  0  0
    7.3154   -4.3395   -1.6735 O   0  0  0  0  0  0  0  0  0  0  0  0
    3.2863    0.7102    1.2188 C   0  0  0  0  0  0  0  0  0  0  0  0
    1.4476    2.0473    2.5780 C   0  0  0  0  0  0  0  0  0  0  0  0
    2.7381    1.9587    1.8256 C   0  0  0  0  0  0  0  0  0  0  0  0
    1.2959    3.2830    3.4426 C   0  0  0  0  0  0  0  0  0  0  0  0
    3.2707   -0.5966    1.7413 C   0  0  0  0  0  0  0  0  0  0  0  0
    3.9988    0.9448    0.0295 C   0  0  0  0  0  0  0  0  0  0  0  0
    4.6764   -1.3696   -0.1213 C   0  0  0  0  0  0  0  0  0  0  0  0
    3.9083   -1.6442    1.0268 C   0  0  0  0  0  0  0  0  0  0  0  0
    4.6972   -0.0685   -0.6193 C   0  0  0  0  0  0  0  0  0  0  0  0
    0.7276    4.4828    2.6889 C   0  0  0  0  0  0  0  0  0  0  0  0
    0.4721    1.1285    2.5014 C   0  0  0  0  0  0  0  0  0  0  0  0
    6.5628   -2.0036   -1.4022 C   0  0  0  0  0  0  0  0  0  0  0  0
    7.3794   -3.1475   -1.9624 C   0  0  0  0  0  0  0  0  0  0  0  0
  1 11  1  0  0  0  0
  2 14  1  0  0  0  0
  3 13  1  0  0  0  0
  3 18  1  0  0  0  0
  4  9  2  0  0  0  0
  5 19  1  0  0  0  0
  6 19  2  0  0  0  0
  7  9  1  0  0  0  0
  7 11  2  0  0  0  0
  7 12  1  0  0  0  0
  8  9  1  0  0  0  0
  8 10  1  0  0  0  0
  8 17  2  0  0  0  0
 10 16  1  0  0  0  0
 11 14  1  0  0  0  0
 12 15  2  0  0  0  0
 13 14  2  0  0  0  0
 13 15  1  0  0  0  0
 18 19  1  0  0  0  0
M  END
