
 OpenBabel10141418083D

  9  8  0  0  0  0  0  0  0  0999 V2000
    1.3574   -0.0546    0.1024 C   0  0  0  0  0  0  0  0  0  0  0  0
    0.6872   -1.2955    0.7290 C   0  0  3  0  0  0  0  0  0  0  0  0
    1.2601   -2.5996    0.2159 C   0  0  0  0  0  0  0  0  0  0  0  0
    0.9055   -3.3446   -0.8380 C   0  0  0  0  0  0  0  0  0  0  0  0
   -0.2982   -2.9554   -1.9881 Cl  0  0  0  0  0  0  0  0  0  0  0  0
    0.8260   -1.2787    2.2010 C   0  0  0  0  0  0  0  0  0  0  0  0
   -0.7062   -1.2168    0.4456 O   0  0  0  0  0  0  0  0  0  0  0  0
    2.8578    0.0787    0.3389 C   0  0  0  0  0  0  0  0  0  0  0  0
    0.9580   -1.2749    3.3949 C   0  0  0  0  0  0  0  0  0  0  0  0
  1  8  1  0  0  0  0
  2  1  1  0  0  0  0
  2  6  1  0  0  0  0
  2  7  1  0  0  0  0
  3  2  1  0  0  0  0
  4  3  2  3  0  0  0
  4  5  1  0  0  0  0
  6  9  3  0  0  0  0
M  END
