1031
 OpenBabel10141417493D

 12 12  0  0  0  0  0  0  0  0999 V2000
    1.1263    0.0729    0.0404 O   0  0  0  0  0  0  0  0  0  0  0  0
    3.0379   -1.1865   -0.2315 O   0  0  0  0  0  0  0  0  0  0  0  0
    2.9194    0.9752   -0.8712 N   0  0  0  0  0  0  0  0  0  0  0  0
    0.3680   -0.9748    0.7024 C   0  0  0  0  0  0  0  0  0  0  0  0
    0.1955   -2.2230   -0.1910 C   0  0  0  0  0  0  0  0  0  0  0  0
   -1.0304   -0.3599    0.9550 C   0  0  0  0  0  0  0  0  0  0  0  0
   -0.5233   -1.9053   -1.5024 C   0  0  0  0  0  0  0  0  0  0  0  0
   -1.7751   -0.0429   -0.3454 C   0  0  0  0  0  0  0  0  0  0  0  0
   -1.8841   -1.2662   -1.2491 C   0  0  0  0  0  0  0  0  0  0  0  0
    0.9702   -1.3073    1.9720 C   0  0  0  0  0  0  0  0  0  0  0  0
    2.4004   -0.1530   -0.3355 C   0  0  0  0  0  0  0  0  0  0  0  0
    1.4666   -1.5813    3.0184 C   0  0  0  0  0  0  0  0  0  0  0  0
  1  4  1  0  0  0  0
  1 11  1  0  0  0  0
  2 11  2  0  0  0  0
  3 11  1  0  0  0  0
  4  5  1  0  0  0  0
  4  6  1  0  0  0  0
  4 10  1  0  0  0  0
  5  7  1  0  0  0  0
  6  8  1  0  0  0  0
  7  9  1  0  0  0  0
  8  9  1  0  0  0  0
 10 12  3  0  0  0  0
M  END
