754
 OpenBabel10141417493D

 15 16  0  0  1  0  0  0  0  0999 V2000
    1.2066    0.0574   -0.5198 O   0  0  0  0  0  0  0  0  0  0  0  0
    5.4609    1.4021    0.4328 O   0  0  0  0  0  0  0  0  0  0  0  0
    3.2143    1.1064   -0.0448 N   0  0  0  0  0  0  0  0  0  0  0  0
    4.4890   -0.6681    0.3624 N   0  0  0  0  0  0  0  0  0  0  0  0
    3.2227   -1.2477   -0.0019 C   0  0  3  0  0  0  0  0  0  0  0  0
    2.3938    0.0229   -0.2227 C   0  0  0  0  0  0  0  0  0  0  0  0
    3.2946   -2.1207   -1.2322 C   0  0  0  0  0  0  0  0  0  0  0  0
    4.4765    0.7040    0.2705 C   0  0  0  0  0  0  0  0  0  0  0  0
    2.8225    2.4804   -0.2737 C   0  0  0  0  0  0  0  0  0  0  0  0
    4.2032   -1.8707   -2.2751 C   0  0  0  0  0  0  0  0  0  0  0  0
    2.3882   -3.1832   -1.3769 C   0  0  0  0  0  0  0  0  0  0  0  0
    3.0687    2.8984   -1.7152 C   0  0  0  0  0  0  0  0  0  0  0  0
    4.2157   -2.6711   -3.4186 C   0  0  0  0  0  0  0  0  0  0  0  0
    2.4014   -3.9815   -2.5226 C   0  0  0  0  0  0  0  0  0  0  0  0
    3.3158   -3.7263   -3.5416 C   0  0  0  0  0  0  0  0  0  0  0  0
  1  6  2  0  0  0  0
  2  8  2  0  0  0  0
  3  6  1  0  0  0  0
  3  8  1  0  0  0  0
  3  9  1  0  0  0  0
  4  5  1  0  0  0  0
  4  8  1  0  0  0  0
  5  6  1  0  0  0  0
  5  7  1  0  0  0  0
  7 10  2  0  0  0  0
  7 11  1  0  0  0  0
  9 12  1  0  0  0  0
 10 13  1  0  0  0  0
 11 14  2  0  0  0  0
 13 15  2  0  0  0  0
 14 15  1  0  0  0  0
M  END
