593
 OpenBabel10141417503D

 10 10  0  0  1  0  0  0  0  0999 V2000
    1.2412    0.1101   -0.4953 O   0  0  0  0  0  0  0  0  0  0  0  0
    5.4176    1.5929    0.2921 O   0  0  0  0  0  0  0  0  0  0  0  0
    3.1876    1.0955    0.1783 N   0  0  0  0  0  0  0  0  0  0  0  0
    3.2239   -1.2365    0.0107 C   0  0  3  0  0  0  0  0  0  0  0  0
    4.6669   -0.6887   -0.0295 C   0  0  0  0  0  0  0  0  0  0  0  0
    2.9479   -1.8721    1.3938 C   0  0  0  0  0  0  0  0  0  0  0  0
    2.4080    0.0349   -0.1476 C   0  0  0  0  0  0  0  0  0  0  0  0
    2.9671   -2.1983   -1.1485 C   0  0  0  0  0  0  0  0  0  0  0  0
    4.5065    0.7886    0.1912 C   0  0  0  0  0  0  0  0  0  0  0  0
    1.5600   -2.4789    1.5658 C   0  0  0  0  0  0  0  0  0  0  0  0
  1  7  2  0  0  0  0
  2  9  2  0  0  0  0
  3  7  1  0  0  0  0
  3  9  1  0  0  0  0
  4  5  1  0  0  0  0
  4  6  1  0  0  0  0
  4  7  1  0  0  0  0
  4  8  1  0  0  0  0
  5  9  1  0  0  0  0
  6 10  1  0  0  0  0
M  END
