3290
 OpenBabel10141417513D

 22 24  0  0  1  0  0  0  0  0999 V2000
   -4.1775    0.2231   -1.7315 S   0  0  0  0  0  0  0  0  0  0  0  0
   -0.9233    4.4772    1.0126 N   0  0  0  0  0  0  0  0  0  0  0  0
   -1.3407    0.8804   -0.5733 N   0  0  0  0  0  0  0  0  0  0  0  0
   -1.6351    3.2571    0.4648 C   0  0  3  0  0  0  0  0  0  0  0  0
   -0.6644    2.1001   -0.0137 C   0  0  0  0  0  0  0  0  0  0  0  0
   -2.5599    3.6724   -0.6976 C   0  0  0  0  0  0  0  0  0  0  0  0
   -1.8768    5.5358    1.4277 C   0  0  0  0  0  0  0  0  0  0  0  0
    0.0330    4.1540    2.0945 C   0  0  0  0  0  0  0  0  0  0  0  0
   -1.4509    0.8358   -1.9881 C   0  0  0  0  0  0  0  0  0  0  0  0
   -2.2397    0.2174    0.2996 C   0  0  0  0  0  0  0  0  0  0  0  0
   -2.6707    0.5687   -2.6313 C   0  0  0  0  0  0  0  0  0  0  0  0
   -3.5428   -0.1314   -0.0989 C   0  0  0  0  0  0  0  0  0  0  0  0
   -1.3115    6.9388    1.6502 C   0  0  0  0  0  0  0  0  0  0  0  0
   -0.5396    3.4591    3.3309 C   0  0  0  0  0  0  0  0  0  0  0  0
   -1.8123   -0.1747    1.5838 C   0  0  0  0  0  0  0  0  0  0  0  0
   -0.3024    1.0124   -2.7853 C   0  0  0  0  0  0  0  0  0  0  0  0
   -2.7550    0.6149   -4.0357 C   0  0  0  0  0  0  0  0  0  0  0  0
   -4.4131   -0.7652    0.8047 C   0  0  0  0  0  0  0  0  0  0  0  0
   -2.6721   -0.8390    2.4643 C   0  0  0  0  0  0  0  0  0  0  0  0
   -0.3856    1.0139   -4.1832 C   0  0  0  0  0  0  0  0  0  0  0  0
   -3.9759   -1.1142    2.0828 C   0  0  0  0  0  0  0  0  0  0  0  0
   -1.6112    0.8453   -4.8019 C   0  0  0  0  0  0  0  0  0  0  0  0
  1 11  1  0  0  0  0
  1 12  1  0  0  0  0
  2  4  1  0  0  0  0
  2  7  1  0  0  0  0
  2  8  1  0  0  0  0
  3  5  1  0  0  0  0
  3  9  1  0  0  0  0
  3 10  1  0  0  0  0
  4  5  1  0  0  0  0
  4  6  1  0  0  0  0
  7 13  1  0  0  0  0
  8 14  1  0  0  0  0
  9 11  1  0  0  0  0
  9 16  2  0  0  0  0
 10 12  1  0  0  0  0
 10 15  2  0  0  0  0
 11 17  2  0  0  0  0
 12 18  2  0  0  0  0
 15 19  1  0  0  0  0
 16 20  1  0  0  0  0
 17 22  1  0  0  0  0
 18 21  1  0  0  0  0
 19 21  2  0  0  0  0
 20 22  2  0  0  0  0
M  END
