1466
 OpenBabel10141417483D

 23 27  0  0  1  0  0  0  0  0999 V2000
   -5.3002    3.0551    4.3914 O   0  0  0  0  0  0  0  0  0  0  0  0
   -7.8782    2.5498    2.1197 O   0  0  0  0  0  0  0  0  0  0  0  0
   -2.8449    1.4400    5.1858 O   0  0  0  0  0  0  0  0  0  0  0  0
   -4.6469    7.6109    1.5494 N   0  0  0  0  0  0  0  0  0  0  0  0
   -5.2910    4.8792    2.8353 C   0  0  1  0  0  0  0  0  0  0  0  0
   -5.3629    5.2313    1.3638 C   0  0  2  0  0  0  0  0  0  0  0  0
   -4.1555    6.2453    1.3034 C   0  0  1  0  0  0  0  0  0  0  0  0
   -6.1125    3.6913    3.3405 C   0  0  2  0  0  0  0  0  0  0  0  0
   -5.5093    6.2280    3.6369 C   0  0  0  0  0  0  0  0  0  0  0  0
   -3.9135    4.2370    3.0292 C   0  0  0  0  0  0  0  0  0  0  0  0
   -2.8137    5.4951    1.0893 C   0  0  0  0  0  0  0  0  0  0  0  0
   -5.6308    7.5279    2.6991 C   0  0  0  0  0  0  0  0  0  0  0  0
   -2.7577    4.4498    2.2349 C   0  0  0  0  0  0  0  0  0  0  0  0
   -6.4542    2.6242    2.2520 C   0  0  2  0  0  0  0  0  0  0  0  0
   -5.3988    4.0332    0.4508 C   0  0  0  0  0  0  0  0  0  0  0  0
   -4.0020    3.2348    3.9744 C   0  0  0  0  0  0  0  0  0  0  0  0
   -5.9087    2.8660    0.8655 C   0  0  0  0  0  0  0  0  0  0  0  0
   -1.6458    3.6644    2.5179 C   0  0  0  0  0  0  0  0  0  0  0  0
   -5.2211    8.2335    0.3673 C   0  0  0  0  0  0  0  0  0  0  0  0
   -2.8945    2.4700    4.2881 C   0  0  0  0  0  0  0  0  0  0  0  0
   -1.7179    2.6932    3.5437 C   0  0  0  0  0  0  0  0  0  0  0  0
   -3.6877    1.5835    6.3319 C   0  0  0  0  0  0  0  0  0  0  0  0
   -3.5077    0.3603    7.2135 C   0  0  0  0  0  0  0  0  0  0  0  0
  1 16  1  0  0  0  0
  3 22  1  0  0  0  0
  3 20  1  0  0  0  0
  4 12  1  0  0  0  0
  4 19  1  0  0  0  0
  5  6  1  0  0  0  0
  5  8  1  0  0  0  0
  5  9  1  6  0  0  0
  5 10  1  0  0  0  0
  6  7  1  0  0  0  0
  6 15  1  1  0  0  0
  7  4  1  6  0  0  0
  7 11  1  0  0  0  0
  8  1  1  6  0  0  0
  8 14  1  0  0  0  0
  9 12  1  0  0  0  0
 10 13  2  0  0  0  0
 10 16  1  0  0  0  0
 11 13  1  0  0  0  0
 13 18  1  0  0  0  0
 14 17  1  0  0  0  0
 14  2  1  6  0  0  0
 15 17  2  0  0  0  0
 16 20  2  0  0  0  0
 18 21  2  0  0  0  0
 20 21  1  0  0  0  0
 22 23  1  0  0  0  0
M  END
