
 OpenBabel10141417483D

 20 20  0  0  0  0  0  0  0  0999 V2000
    3.9943   -2.0143    0.7197 C   0  0  0  0  0  0  0  0  0  0  0  0
    1.1565    4.3493   -1.0751 C   0  0  0  0  0  0  0  0  0  0  0  0
    0.1683    0.0910   -1.4447 C   0  0  0  0  0  0  0  0  0  0  0  0
    6.1244    3.3268   -0.2831 C   0  0  0  0  0  0  0  0  0  0  0  0
    3.8008    6.2146    3.2661 C   0  0  0  0  0  0  0  0  0  0  0  0
    3.0060   -0.8600    0.6921 C   0  0  0  0  0  0  0  0  0  0  0  0
    2.5000    3.7064   -1.4055 C   0  0  0  0  0  0  0  0  0  0  0  0
    0.8754    1.0921   -0.5379 C   0  0  0  0  0  0  0  0  0  0  0  0
    6.7405    6.8139    0.9785 C   0  0  0  0  0  0  0  0  0  0  0  0
    6.7703    5.6413    0.2308 C   0  0  0  0  0  0  0  0  0  0  0  0
    5.7727    6.9546    1.9647 C   0  0  0  0  0  0  0  0  0  0  0  0
    3.1162   -0.0338   -0.6127 C   0  0  0  0  0  0  0  0  0  0  0  0
    5.8571    4.6122    0.4355 C   0  0  0  0  0  0  0  0  0  0  0  0
    4.7804    5.9809    2.1429 C   0  0  0  0  0  0  0  0  0  0  0  0
    3.0207    2.5466   -0.5038 C   0  0  3  0  0  0  0  0  0  0  0  0
    4.7781    4.7870    1.3333 C   0  0  0  0  0  0  0  0  0  0  0  0
    3.2204    2.9296    1.0283 C   0  0  0  0  0  0  0  0  0  0  0  0
    3.8717    3.7845    1.6757 N   0  0  0  0  0  0  0  0  0  0  0  0
    2.3177    1.2076   -0.7112 N   0  0  0  0  0  0  0  0  0  0  0  0
    2.5749    2.0553    1.8034 O   0  0  0  0  0  0  0  0  0  0  0  0
  6  1  1  0  0  0  0
  7  2  1  0  0  0  0
  8  3  1  0  0  0  0
 10  9  2  0  0  0  0
 11  9  1  0  0  0  0
 12  6  1  0  0  0  0
 13  4  1  0  0  0  0
 13 10  1  0  0  0  0
 14  5  1  0  0  0  0
 14 11  2  0  0  0  0
 15  7  1  0  0  0  0
 16 13  2  0  0  0  0
 16 14  1  0  0  0  0
 17 15  1  0  0  0  0
 18 16  1  0  0  0  0
 18 17  2  3  0  0  0
 19  8  1  0  0  0  0
 19 12  1  0  0  0  0
 19 15  1  0  0  0  0
 20 17  1  0  0  0  0
M  END
