1077
 OpenBabel10141417483D

 11 10  0  0  0  0  0  0  0  0999 V2000
    1.0090   -0.0406   -0.0910 P   0  0  0  0  0  0  0  0  0  0  0  0
    3.4252   -0.2366   -1.8245 P   0  0  0  0  0  0  0  0  0  0  0  0
    3.3563    1.2191    0.4211 O   0  0  0  0  0  0  0  0  0  0  0  0
    1.0201    0.1472    1.5457 O   0  0  0  0  0  0  0  0  0  0  0  0
    1.0399    1.5817   -0.4125 O   0  0  0  0  0  0  0  0  0  0  0  0
    3.4609    1.2152   -2.5032 O   0  0  0  0  0  0  0  0  0  0  0  0
    4.9935   -0.5744   -1.7718 O   0  0  0  0  0  0  0  0  0  0  0  0
   -0.5353   -0.0406   -0.0910 O   0  0  0  0  0  0  0  0  0  0  0  0
    2.6807   -1.2283   -2.6596 O   0  0  0  0  0  0  0  0  0  0  0  0
    2.8390   -0.0406   -0.0910 C   0  0  0  0  0  0  0  0  0  0  0  0
    3.4265   -1.1630    0.7681 C   0  0  0  0  0  0  0  0  0  0  0  0
  1  4  1  0  0  0  0
  1  5  1  0  0  0  0
  1  8  2  0  0  0  0
  1 10  1  0  0  0  0
  2  6  1  0  0  0  0
  2  7  1  0  0  0  0
  2  9  2  0  0  0  0
  2 10  1  0  0  0  0
  3 10  1  0  0  0  0
 10 11  1  0  0  0  0
M  END
