749
 OpenBabel10141417493D

 21 23  0  0  1  0  0  0  0  0999 V2000
   -3.3437    0.5636   -0.3392 O   0  0  0  0  0  0  0  0  0  0  0  0
   -2.0446    2.8849    3.7013 O   0  0  0  0  0  0  0  0  0  0  0  0
   -0.7853    3.2971    1.8924 O   0  0  0  0  0  0  0  0  0  0  0  0
    0.1917    1.5227    0.1692 N   0  0  0  0  0  0  0  0  0  0  0  0
   -2.3520    1.4977    0.1958 C   0  0  3  0  0  0  0  0  0  0  0  0
   -1.0007    0.8706    0.0100 C   0  0  0  0  0  0  0  0  0  0  0  0
   -0.7227   -0.4313   -0.3375 C   0  0  0  0  0  0  0  0  0  0  0  0
   -1.8225   -1.3731   -0.6539 C   0  0  0  0  0  0  0  0  0  0  0  0
   -2.5243    2.7936   -0.6356 C   0  0  0  0  0  0  0  0  0  0  0  0
   -2.6678    1.7433    1.6902 C   0  0  0  0  0  0  0  0  0  0  0  0
    0.6894   -0.5931   -0.3207 C   0  0  0  0  0  0  0  0  0  0  0  0
   -3.1337   -0.8337   -0.0572 C   0  0  0  0  0  0  0  0  0  0  0  0
    1.2430    0.6533   -0.0107 C   0  0  0  0  0  0  0  0  0  0  0  0
    2.6270    0.8910    0.0816 C   0  0  0  0  0  0  0  0  0  0  0  0
   -2.2631    2.6283   -2.1322 C   0  0  0  0  0  0  0  0  0  0  0  0
    1.5548   -1.6788   -0.5411 C   0  0  0  0  0  0  0  0  0  0  0  0
   -1.7351    2.7070    2.3938 C   0  0  0  0  0  0  0  0  0  0  0  0
    3.2274    2.2401    0.3912 C   0  0  0  0  0  0  0  0  0  0  0  0
    3.4559   -0.2245   -0.1320 C   0  0  0  0  0  0  0  0  0  0  0  0
    2.9347   -1.4820   -0.4368 C   0  0  0  0  0  0  0  0  0  0  0  0
    3.4093    2.4696    1.8837 C   0  0  0  0  0  0  0  0  0  0  0  0
  1  5  1  0  0  0  0
  1 12  1  0  0  0  0
  2 17  1  0  0  0  0
  3 17  2  0  0  0  0
  4  6  1  0  0  0  0
  4 13  1  0  0  0  0
  5  6  1  0  0  0  0
  5  9  1  0  0  0  0
  5 10  1  0  0  0  0
  6  7  2  0  0  0  0
  7  8  1  0  0  0  0
  7 11  1  0  0  0  0
  8 12  1  0  0  0  0
  9 15  1  0  0  0  0
 10 17  1  0  0  0  0
 11 13  1  0  0  0  0
 11 16  2  0  0  0  0
 13 14  2  0  0  0  0
 14 18  1  0  0  0  0
 14 19  1  0  0  0  0
 16 20  1  0  0  0  0
 18 21  1  0  0  0  0
 19 20  2  0  0  0  0
M  END
