
 OpenBabel10141417483D

 26 27  0  0  0  0  0  0  0  0999 V2000
   -1.6800   -0.3183   -0.2348 C   0  0  0  0  0  0  0  0  0  0  0  0
   -0.9941   -1.5036   -0.4709 C   0  0  0  0  0  0  0  0  0  0  0  0
    5.6890   -2.4789    0.1302 C   0  0  0  0  0  0  0  0  0  0  0  0
    5.3768   -3.6525    0.8097 C   0  0  0  0  0  0  0  0  0  0  0  0
    4.7264   -1.4725   -0.0019 C   0  0  0  0  0  0  0  0  0  0  0  0
   -0.9966    0.7674    0.2959 C   0  0  0  0  0  0  0  0  0  0  0  0
    0.3834   -1.5929   -0.2158 C   0  0  0  0  0  0  0  0  0  0  0  0
    0.6411    7.2800    5.1286 C   0  0  0  0  0  0  0  0  0  0  0  0
    0.1771    5.9476    4.5404 C   0  0  0  0  0  0  0  0  0  0  0  0
    0.2935    4.5036    2.6833 C   0  0  0  0  0  0  0  0  0  0  0  0
    0.9054    4.2406    1.3090 C   0  0  0  0  0  0  0  0  0  0  0  0
    3.1502   -2.7844    1.2454 C   0  0  0  0  0  0  0  0  0  0  0  0
    4.0990   -3.8231    1.3609 C   0  0  0  0  0  0  0  0  0  0  0  0
    3.4438   -1.6062    0.5547 C   0  0  0  0  0  0  0  0  0  0  0  0
    0.3830    0.6837    0.5683 C   0  0  0  0  0  0  0  0  0  0  0  0
    1.1121   -0.4990    0.2924 C   0  0  0  0  0  0  0  0  0  0  0  0
    1.0402    1.8663    1.1972 C   0  0  0  0  0  0  0  0  0  0  0  0
    3.7113   -5.1125    2.0391 C   0  0  0  0  0  0  0  0  0  0  0  0
    4.6968   -6.0543    2.0329 F   0  0  0  0  0  0  0  0  0  0  0  0
    3.3654   -4.9428    3.3444 F   0  0  0  0  0  0  0  0  0  0  0  0
    2.6373   -5.7001    1.4401 F   0  0  0  0  0  0  0  0  0  0  0  0
    2.5248   -0.5473    0.3987 N   0  0  0  0  0  0  0  0  0  0  0  0
    0.2209    8.3715    4.3134 O   0  0  0  0  0  0  0  0  0  0  0  0
    1.9823    1.8062    1.9514 O   0  0  0  0  0  0  0  0  0  0  0  0
    0.7283    5.7574    3.2253 O   0  0  0  0  0  0  0  0  0  0  0  0
    0.4187    3.0007    0.7706 O   0  0  0  0  0  0  0  0  0  0  0  0
  2  1  2  0  0  0  0
  4  3  2  0  0  0  0
  5  3  1  0  0  0  0
  6  1  1  0  0  0  0
  7  2  1  0  0  0  0
  9  8  1  0  0  0  0
 11 10  1  0  0  0  0
 13  4  1  0  0  0  0
 13 12  2  0  0  0  0
 14  5  2  0  0  0  0
 14 12  1  0  0  0  0
 15  6  2  0  0  0  0
 16  7  2  0  0  0  0
 16 15  1  0  0  0  0
 17 15  1  0  0  0  0
 18 13  1  0  0  0  0
 19 18  1  0  0  0  0
 20 18  1  0  0  0  0
 21 18  1  0  0  0  0
 22 14  1  0  0  0  0
 22 16  1  0  0  0  0
 23  8  1  0  0  0  0
 24 17  2  0  0  0  0
 25  9  1  0  0  0  0
 25 10  1  0  0  0  0
 26 11  1  0  0  0  0
 26 17  1  0  0  0  0
M  END
