
 OpenBabel10141417483D

 18 19  0  0  1  0  0  0  0  0999 V2000
   -0.1736   -0.5160    2.1991 C   0  0  0  0  0  0  0  0  0  0  0  0
   -1.0946   -1.1454    1.3729 N   0  0  0  0  0  0  0  0  0  0  0  0
   -1.9633    0.8499    1.8557 N   0  0  0  0  0  0  0  0  0  0  0  0
    1.1097   -1.0111    2.6307 C   0  0  0  0  0  0  0  0  0  0  0  0
   -2.1282   -0.2619    1.1815 C   0  0  0  0  0  0  0  0  0  0  0  0
   -0.9903   -2.4695    0.7419 C   0  0  1  0  0  0  0  0  0  0  0  0
   -0.7720    0.6965    2.4987 C   0  0  0  0  0  0  0  0  0  0  0  0
    1.6133   -2.0708    2.3087 O   0  0  0  0  0  0  0  0  0  0  0  0
   -1.5934   -3.5547    1.6336 C   0  0  0  0  0  0  0  0  0  0  0  0
    1.7056   -0.0971    3.4552 O   0  0  0  0  0  0  0  0  0  0  0  0
   -1.5575   -2.4905   -0.6936 C   0  0  0  0  0  0  0  0  0  0  0  0
   -2.9485   -3.9163    1.5473 C   0  0  0  0  0  0  0  0  0  0  0  0
   -0.7980   -4.2386    2.5714 C   0  0  0  0  0  0  0  0  0  0  0  0
    3.0025   -0.4625    3.9475 C   0  0  0  0  0  0  0  0  0  0  0  0
    2.8680   -1.3558    5.1659 C   0  0  0  0  0  0  0  0  0  0  0  0
   -1.3361   -5.2430    3.3839 C   0  0  0  0  0  0  0  0  0  0  0  0
   -3.4784   -4.9403    2.3371 C   0  0  0  0  0  0  0  0  0  0  0  0
   -2.6739   -5.6016    3.2581 C   0  0  0  0  0  0  0  0  0  0  0  0
  2  1  1  0  0  0  0
  4  1  1  0  0  0  0
  5  2  1  0  0  0  0
  5  3  2  0  0  0  0
  6  2  1  1  0  0  0
  6 11  1  0  0  0  0
  7  1  2  0  0  0  0
  7  3  1  0  0  0  0
  8  4  2  0  0  0  0
  9  6  1  0  0  0  0
 10  4  1  0  0  0  0
 12  9  2  0  0  0  0
 13  9  1  0  0  0  0
 14 10  1  0  0  0  0
 15 14  1  0  0  0  0
 16 13  2  0  0  0  0
 17 12  1  0  0  0  0
 18 16  1  0  0  0  0
 18 17  2  0  0  0  0
M  END
