
 OpenBabel10141417483D

 24 27  0  0  1  0  0  0  0  0999 V2000
   -3.8888    8.4865   -5.6729 C   0  0  0  0  0  0  0  0  0  0  0  0
   -4.2920    8.3310   -2.5645 C   0  0  0  0  0  0  0  0  0  0  0  0
   -1.5195    8.4416   -6.2878 C   0  0  2  0  0  0  0  0  0  0  0  0
   -0.7016    6.6089   -4.6086 C   0  0  0  0  0  0  0  0  0  0  0  0
   -2.8982    8.9215   -6.7540 C   0  0  0  0  0  0  0  0  0  0  0  0
   -2.4726    6.0852   -1.7121 C   0  0  2  0  0  0  0  0  0  0  0  0
   -0.6196    7.2023   -3.2281 C   0  0  0  0  0  0  0  0  0  0  0  0
   -4.7206    7.2127   -1.6128 C   0  0  0  0  0  0  0  0  0  0  0  0
   -3.9693    5.9454   -1.8842 C   0  0  0  0  0  0  0  0  0  0  0  0
   -1.7266    4.7417   -1.8344 C   0  0  0  0  0  0  0  0  0  0  0  0
   -4.5942    4.8179   -2.2547 C   0  0  0  0  0  0  0  0  0  0  0  0
   -2.3367    3.7613   -2.8263 C   0  0  0  0  0  0  0  0  0  0  0  0
   -2.9498    8.1179   -3.3172 C   0  0  2  0  0  0  0  0  0  0  0  0
   -1.9134    7.3504   -2.4563 C   0  0  1  0  0  0  0  0  0  0  0  0
   -1.8482    7.1180   -5.5147 C   0  0  2  0  0  0  0  0  0  0  0  0
   -2.2320    5.9442   -6.5053 C   0  0  0  0  0  0  0  0  0  0  0  0
   -3.1542    7.4981   -4.7300 C   0  0  1  0  0  0  0  0  0  0  0  0
   -4.4174    2.5641   -2.8639 O   0  0  0  0  0  0  0  0  0  0  0  0
   -3.8229    3.6125   -2.6266 C   0  0  0  0  0  0  0  0  0  0  0  0
   -0.8621    9.4985   -5.4901 C   0  0  0  0  0  0  0  0  0  0  0  0
   -0.7082    8.2228   -7.4317 O   0  0  0  0  0  0  0  0  0  0  0  0
   -1.1058    5.2758   -7.2912 C   0  0  0  0  0  0  0  0  0  0  0  0
   -0.3134   10.3769   -4.8806 C   0  0  0  0  0  0  0  0  0  0  0  0
    0.5553    7.6112   -2.7174 C   0  0  0  0  0  0  0  0  0  0  0  0
  2  8  1  0  0  0  0
  3  5  1  0  0  0  0
  3 20  1  1  0  0  0
  3 21  1  0  0  0  0
  4  7  1  0  0  0  0
  5  1  1  0  0  0  0
  6  9  1  1  0  0  0
  6 10  1  0  0  0  0
  7 24  2  0  0  0  0
  8  9  1  0  0  0  0
  9 11  2  0  0  0  0
 10 12  1  0  0  0  0
 11 19  1  0  0  0  0
 12 19  1  0  0  0  0
 13 14  1  0  0  0  0
 13  2  1  6  0  0  0
 14  6  1  0  0  0  0
 14  7  1  6  0  0  0
 15  3  1  0  0  0  0
 15  4  1  0  0  0  0
 15 16  1  6  0  0  0
 16 22  1  0  0  0  0
 17 13  1  0  0  0  0
 17 15  1  0  0  0  0
 17  1  1  1  0  0  0
 19 18  2  0  0  0  0
 20 23  3  0  0  0  0
M  END
