
 OpenBabel10141420573D

 28 30  0  0  0  0  0  0  0  0999 V2000
   -3.6526   -0.6860   -2.0937 C   0  0  0  0  0  0  0  0  0  0  0  0
   -4.9997   -1.0613   -2.0231 C   0  0  0  0  0  0  0  0  0  0  0  0
   -5.4275   -2.3548   -2.3302 C   0  0  0  0  0  0  0  0  0  0  0  0
   -2.7341   -1.6619   -2.5126 C   0  0  0  0  0  0  0  0  0  0  0  0
   -3.1562   -2.9634   -2.8362 C   0  0  0  0  0  0  0  0  0  0  0  0
   -4.5059   -3.3123   -2.7407 C   0  0  0  0  0  0  0  0  0  0  0  0
   -3.2130    0.5993   -1.7209 N   0  0  0  0  0  0  0  0  0  0  0  0
   -4.9499   -4.6373   -3.0581 C   0  0  0  0  0  0  0  0  0  0  0  0
   -3.7265    1.4256   -0.7084 C   0  0  0  0  0  0  0  0  0  0  0  0
   -2.8449    2.2312   -0.0970 N   0  0  0  0  0  0  0  0  0  0  0  0
   -3.2169    2.7819    1.0731 C   0  0  0  0  0  0  0  0  0  0  0  0
   -5.0027    1.3143   -0.3111 N   0  0  0  0  0  0  0  0  0  0  0  0
   -5.3341    1.8362    0.8838 C   0  0  0  0  0  0  0  0  0  0  0  0
   -4.4327    2.5096    1.6738 C   0  0  0  0  0  0  0  0  0  0  0  0
   -2.2700    3.6229    1.6692 N   0  0  0  0  0  0  0  0  0  0  0  0
   -4.7821    2.9019    3.4910 Br  0  0  0  0  0  0  0  0  0  0  0  0
   -6.6419    1.7000    1.3595 O   0  0  0  0  0  0  0  0  0  0  0  0
   -7.4022    0.6188    0.9587 C   0  0  0  0  0  0  0  0  0  0  0  0
   -6.9332   -0.7082    1.0333 C   0  0  0  0  0  0  0  0  0  0  0  0
   -7.7610   -1.7540    0.5887 C   0  0  0  0  0  0  0  0  0  0  0  0
   -8.7535    0.8625    0.6145 C   0  0  0  0  0  0  0  0  0  0  0  0
   -9.5798   -0.2161    0.2424 C   0  0  0  0  0  0  0  0  0  0  0  0
   -9.0770   -1.5147    0.1971 C   0  0  0  0  0  0  0  0  0  0  0  0
   -5.5956   -1.0951    1.6026 C   0  0  0  0  0  0  0  0  0  0  0  0
   -9.4056    2.2139    0.7540 C   0  0  0  0  0  0  0  0  0  0  0  0
   -9.9205   -2.6166   -0.1867 C   0  0  0  0  0  0  0  0  0  0  0  0
  -10.5846   -3.5075   -0.4842 N   0  0  0  0  0  0  0  0  0  0  0  0
   -5.3191   -5.7085   -3.3094 N   0  0  0  0  0  0  0  0  0  0  0  0
  1  2  1  0  0  0  0
  1  4  2  0  0  0  0
  1  7  1  0  0  0  0
  2  3  2  0  0  0  0
  4  5  1  0  0  0  0
  5  6  2  0  0  0  0
  6  3  1  0  0  0  0
  6  8  1  0  0  0  0
  7  9  1  0  0  0  0
  8 28  3  0  0  0  0
  9 10  1  0  0  0  0
  9 12  2  0  0  0  0
 10 11  2  0  0  0  0
 11 15  1  0  0  0  0
 12 13  1  0  0  0  0
 13 14  2  0  0  0  0
 13 17  1  0  0  0  0
 14 11  1  0  0  0  0
 14 16  1  0  0  0  0
 17 18  1  0  0  0  0
 18 19  1  0  0  0  0
 18 21  2  0  0  0  0
 19 20  2  0  0  0  0
 19 24  1  0  0  0  0
 21 22  1  0  0  0  0
 21 25  1  0  0  0  0
 22 23  2  0  0  0  0
 23 20  1  0  0  0  0
 23 26  1  0  0  0  0
 26 27  3  0  0  0  0
M  END
