990
 OpenBabel10141417503D

 22 25  0  0  1  0  0  0  0  0999 V2000
  -12.8734  -12.7646    4.1413 O   0  0  0  0  0  0  0  0  0  0  0  0
   -8.5830   -4.8588    2.8543 O   0  0  0  0  0  0  0  0  0  0  0  0
  -10.0898  -11.6493    2.3928 C   0  0  1  0  0  0  0  0  0  0  0  0
   -9.0821  -10.6339    1.9214 C   0  0  1  0  0  0  0  0  0  0  0  0
  -11.1157  -11.1957    3.4428 C   0  0  2  0  0  0  0  0  0  0  0  0
   -9.8372   -9.3951    1.3025 C   0  0  2  0  0  0  0  0  0  0  0  0
  -11.8872  -10.0331    2.7946 C   0  0  0  0  0  0  0  0  0  0  0  0
  -10.9238   -8.8883    2.3014 C   0  0  0  0  0  0  0  0  0  0  0  0
   -8.7610   -8.3733    0.7313 C   0  0  1  0  0  0  0  0  0  0  0  0
   -9.5695  -12.9910    2.8668 C   0  0  0  0  0  0  0  0  0  0  0  0
   -8.0164  -10.2687    2.9609 C   0  0  0  0  0  0  0  0  0  0  0  0
  -11.7823  -12.5744    3.6198 C   0  0  0  0  0  0  0  0  0  0  0  0
  -10.8895  -13.7109    3.1132 C   0  0  0  0  0  0  0  0  0  0  0  0
  -10.6530  -10.7912    4.8544 C   0  0  0  0  0  0  0  0  0  0  0  0
   -7.7146   -8.1308    1.8330 C   0  0  0  0  0  0  0  0  0  0  0  0
   -7.0453   -9.3063    2.3522 C   0  0  0  0  0  0  0  0  0  0  0  0
   -8.1283   -9.0316   -0.5389 C   0  0  0  0  0  0  0  0  0  0  0  0
   -9.2548   -7.0354    0.1798 C   0  0  0  0  0  0  0  0  0  0  0  0
   -7.5712   -6.9568    2.4779 C   0  0  0  0  0  0  0  0  0  0  0  0
   -8.9948   -5.8463    0.7491 C   0  0  0  0  0  0  0  0  0  0  0  0
   -5.7203   -9.4968    2.3054 C   0  0  0  0  0  0  0  0  0  0  0  0
   -8.3893   -5.8131    2.0850 C   0  0  0  0  0  0  0  0  0  0  0  0
  1 12  2  0  0  0  0
  2 22  2  0  0  0  0
  3  4  1  0  0  0  0
  3  5  1  0  0  0  0
  3 10  1  6  0  0  0
  4  6  1  0  0  0  0
  4 11  1  1  0  0  0
  5  7  1  0  0  0  0
  5 12  1  0  0  0  0
  5 14  1  6  0  0  0
  6  8  1  6  0  0  0
  6  9  1  0  0  0  0
  7  8  1  0  0  0  0
  9 15  1  0  0  0  0
  9 18  1  0  0  0  0
  9 17  1  6  0  0  0
 10 13  1  0  0  0  0
 11 16  1  0  0  0  0
 12 13  1  0  0  0  0
 15 16  1  0  0  0  0
 15 19  2  0  0  0  0
 16 21  2  0  0  0  0
 18 20  2  0  0  0  0
 19 22  1  0  0  0  0
 20 22  1  0  0  0  0
M  END
