973
 OpenBabel10141417513D

 30 33  0  0  1  0  0  0  0  0999 V2000
   12.9489   -3.2724  -12.3700 F   0  0  0  0  0  0  0  0  0  0  0  0
   11.2663   -0.1228    1.7906 F   0  0  0  0  0  0  0  0  0  0  0  0
   13.3777    0.3309   -6.7934 O   0  0  0  0  0  0  0  0  0  0  0  0
    8.3902    0.2283   -3.7913 O   0  0  0  0  0  0  0  0  0  0  0  0
   10.4205    6.7554  -10.8159 O   0  0  0  0  0  0  0  0  0  0  0  0
   11.9512    0.6847   -8.6425 N   0  0  0  0  0  0  0  0  0  0  0  0
   11.1109    1.4786   -6.9091 C   0  0  1  0  0  0  0  0  0  0  0  0
   10.7326    1.4760   -8.4302 C   0  0  1  0  0  0  0  0  0  0  0  0
   10.1955    0.6293   -6.0263 C   0  0  0  0  0  0  0  0  0  0  0  0
   12.4058    0.7723   -7.3639 C   0  0  0  0  0  0  0  0  0  0  0  0
   10.6550    2.9062   -9.1485 C   0  0  0  0  0  0  0  0  0  0  0  0
   10.6413    0.6638   -4.5563 C   0  0  0  0  0  0  0  0  0  0  0  0
   12.2578   -0.2482   -9.6368 C   0  0  0  0  0  0  0  0  0  0  0  0
    9.7436   -0.2076   -3.6607 C   0  0  1  0  0  0  0  0  0  0  0  0
    9.4213    3.4564   -9.5623 C   0  0  0  0  0  0  0  0  0  0  0  0
   11.7937    3.7113   -9.3744 C   0  0  0  0  0  0  0  0  0  0  0  0
   13.4137   -1.0366   -9.5512 C   0  0  0  0  0  0  0  0  0  0  0  0
   11.3736   -0.4576  -10.7044 C   0  0  0  0  0  0  0  0  0  0  0  0
   10.1385   -0.1820   -2.1951 C   0  0  0  0  0  0  0  0  0  0  0  0
    9.3218    4.7326  -10.1302 C   0  0  0  0  0  0  0  0  0  0  0  0
   11.7050    4.9878   -9.9412 C   0  0  0  0  0  0  0  0  0  0  0  0
   10.4685    5.4951  -10.3013 C   0  0  0  0  0  0  0  0  0  0  0  0
   13.6544   -2.0511  -10.4815 C   0  0  0  0  0  0  0  0  0  0  0  0
   11.6070   -1.4822  -11.6269 C   0  0  0  0  0  0  0  0  0  0  0  0
   10.4578   -1.3746   -1.5220 C   0  0  0  0  0  0  0  0  0  0  0  0
   10.1814    1.0252   -1.4762 C   0  0  0  0  0  0  0  0  0  0  0  0
   12.7400   -2.2753  -11.5011 C   0  0  0  0  0  0  0  0  0  0  0  0
   10.8369   -1.3520   -0.1751 C   0  0  0  0  0  0  0  0  0  0  0  0
   10.5628    1.0467   -0.1325 C   0  0  0  0  0  0  0  0  0  0  0  0
   10.8926   -0.1418    0.5036 C   0  0  0  0  0  0  0  0  0  0  0  0
  1 27  1  0  0  0  0
  2 30  1  0  0  0  0
  3 10  2  0  0  0  0
  5 22  1  0  0  0  0
  6  8  1  0  0  0  0
  6 10  1  0  0  0  0
  6 13  1  0  0  0  0
  7  8  1  0  0  0  0
  7  9  1  1  0  0  0
  7 10  1  0  0  0  0
  8 11  1  6  0  0  0
  9 12  1  0  0  0  0
 11 15  2  0  0  0  0
 11 16  1  0  0  0  0
 13 17  2  0  0  0  0
 13 18  1  0  0  0  0
 14 19  1  1  0  0  0
 14 12  1  0  0  0  0
 14  4  1  0  0  0  0
 15 20  1  0  0  0  0
 16 21  2  0  0  0  0
 17 23  1  0  0  0  0
 18 24  2  0  0  0  0
 19 25  2  0  0  0  0
 19 26  1  0  0  0  0
 20 22  2  0  0  0  0
 21 22  1  0  0  0  0
 23 27  2  0  0  0  0
 24 27  1  0  0  0  0
 25 28  1  0  0  0  0
 26 29  2  0  0  0  0
 28 30  2  0  0  0  0
 29 30  1  0  0  0  0
M  END
