
 OpenBabel10141417483D

 22 23  0  0  0  0  0  0  0  0999 V2000
    0.5934   -1.3025    1.2317 F   0  0  0  0  0  0  0  0  0  0  0  0
   14.3987   -1.4900   -2.1317 O   0  0  0  0  0  0  0  0  0  0  0  0
   13.1487    0.3944   -2.0836 O   0  0  0  0  0  0  0  0  0  0  0  0
    6.7770   -1.2112   -0.2459 N   0  0  0  0  0  0  0  0  0  0  0  0
   12.2084   -1.7043   -1.7739 N   0  0  0  0  0  0  0  0  0  0  0  0
   10.8817    1.0180   -1.2302 N   0  0  0  0  0  0  0  0  0  0  0  0
    5.9700   -2.4043   -0.0607 C   0  0  0  0  0  0  0  0  0  0  0  0
    8.1248   -1.3513   -0.5919 C   0  0  0  0  0  0  0  0  0  0  0  0
    4.5490   -2.0525    0.3085 C   0  0  0  0  0  0  0  0  0  0  0  0
   10.8593   -1.4653   -1.4114 C   0  0  0  0  0  0  0  0  0  0  0  0
    8.8842   -0.1948   -0.7889 C   0  0  0  0  0  0  0  0  0  0  0  0
   10.2249   -0.2222   -1.2269 C   0  0  0  0  0  0  0  0  0  0  0  0
    8.7468   -2.5709   -0.8486 C   0  0  0  0  0  0  0  0  0  0  0  0
   10.0934   -2.6323   -1.2285 C   0  0  0  0  0  0  0  0  0  0  0  0
    3.7507   -1.2844   -0.5555 C   0  0  0  0  0  0  0  0  0  0  0  0
    3.9859   -2.5544    1.4932 C   0  0  0  0  0  0  0  0  0  0  0  0
    2.4148   -1.0293   -0.2416 C   0  0  0  0  0  0  0  0  0  0  0  0
    2.6511   -2.2969    1.8052 C   0  0  0  0  0  0  0  0  0  0  0  0
    1.8778   -1.5393    0.9344 C   0  0  0  0  0  0  0  0  0  0  0  0
   13.2200   -0.8271   -2.0025 C   0  0  0  0  0  0  0  0  0  0  0  0
   15.5531   -0.6310   -2.1655 C   0  0  0  0  0  0  0  0  0  0  0  0
   16.0062   -0.3301   -0.7465 C   0  0  0  0  0  0  0  0  0  0  0  0
  1 19  1  0  0  0  0
  2 20  1  0  0  0  0
  2 21  1  0  0  0  0
  3 20  2  0  0  0  0
  4  7  1  0  0  0  0
  4  8  1  0  0  0  0
  5 10  1  0  0  0  0
  5 20  1  0  0  0  0
  6 12  1  0  0  0  0
  7  9  1  0  0  0  0
  8 11  2  0  0  0  0
  8 13  1  0  0  0  0
  9 15  2  0  0  0  0
  9 16  1  0  0  0  0
 10 12  2  0  0  0  0
 10 14  1  0  0  0  0
 11 12  1  0  0  0  0
 13 14  2  0  0  0  0
 15 17  1  0  0  0  0
 16 18  2  0  0  0  0
 17 19  2  0  0  0  0
 18 19  1  0  0  0  0
 21 22  1  0  0  0  0
M  END
