927
 OpenBabel10141417513D

 20 20  0  0  0  0  0  0  0  0999 V2000
    0.7947   -1.4081    1.1971 S   0  0  0  0  0  0  0  0  0  0  0  0
    4.1194    2.8437    0.0508 S   0  0  0  0  0  0  0  0  0  0  0  0
   -0.1708   -1.5702    6.0739 S   0  0  0  0  0  0  0  0  0  0  0  0
    2.7831    3.1230    0.5274 O   0  0  0  0  0  0  0  0  0  0  0  0
    5.1349    2.3700    0.9493 O   0  0  0  0  0  0  0  0  0  0  0  0
    4.0298    1.8959   -1.2389 N   0  0  0  0  0  0  0  0  0  0  0  0
   -0.7467    0.2117    4.3187 N   0  0  0  0  0  0  0  0  0  0  0  0
    3.6029    0.0207   -2.4181 N   0  0  0  0  0  0  0  0  0  0  0  0
   -2.1267    0.2105    6.2906 N   0  0  0  0  0  0  0  0  0  0  0  0
    4.6766    4.3300   -0.4868 N   0  0  0  0  0  0  0  0  0  0  0  0
   -3.3760    0.9750    4.3875 N   0  0  0  0  0  0  0  0  0  0  0  0
   -4.1861    1.2184    6.4308 N   0  0  0  0  0  0  0  0  0  0  0  0
    2.9484   -0.0428   -0.0170 C   0  0  0  0  0  0  0  0  0  0  0  0
    1.5043   -0.5021   -0.2439 C   0  0  0  0  0  0  0  0  0  0  0  0
    0.8838   -0.1094    2.4765 C   0  0  0  0  0  0  0  0  0  0  0  0
    3.5391    0.6930   -1.2219 C   0  0  0  0  0  0  0  0  0  0  0  0
    0.3096   -0.5286    3.7983 C   0  0  0  0  0  0  0  0  0  0  0  0
    0.7553   -1.5356    4.6341 C   0  0  0  0  0  0  0  0  0  0  0  0
   -1.1159   -0.2413    5.5044 C   0  0  0  0  0  0  0  0  0  0  0  0
   -3.1326    0.7670    5.7069 C   0  0  0  0  0  0  0  0  0  0  0  0
  1 14  1  0  0  0  0
  1 15  1  0  0  0  0
  2  4  2  0  0  0  0
  2  5  2  0  0  0  0
  2  6  1  0  0  0  0
  2 10  1  0  0  0  0
  3 18  1  0  0  0  0
  3 19  1  0  0  0  0
  6 16  2  3  0  0  0
  7 17  1  0  0  0  0
  7 19  2  0  0  0  0
  8 16  1  0  0  0  0
  9 19  1  0  0  0  0
  9 20  2  0  0  0  0
 11 20  1  0  0  0  0
 12 20  1  0  0  0  0
 13 14  1  0  0  0  0
 13 16  1  0  0  0  0
 15 17  1  0  0  0  0
 17 18  2  0  0  0  0
M  END
