1023
 OpenBabel10141417513D

 25 26  0  0  1  0  0  0  0  0999 V2000
    6.0201    1.4861   -0.5181 Cl  0  0  0  0  0  0  0  0  0  0  0  0
    8.6269    1.5980   -2.3593 Cl  0  0  0  0  0  0  0  0  0  0  0  0
    3.1656    1.3172   -2.2653 O   0  0  0  0  0  0  0  0  0  0  0  0
    4.8226    3.7893    1.3721 O   0  0  0  0  0  0  0  0  0  0  0  0
    0.9888    1.9308   -2.6612 O   0  0  0  0  0  0  0  0  0  0  0  0
    4.0646    5.8619    1.9424 O   0  0  0  0  0  0  0  0  0  0  0  0
    2.3451    5.9189   -2.0013 N   0  0  0  0  0  0  0  0  0  0  0  0
    3.8270    3.7158   -1.1315 C   0  0  3  0  0  0  0  0  0  0  0  0
    2.6474    3.5754   -2.1065 C   0  0  0  0  0  0  0  0  0  0  0  0
    3.6831    4.9854   -0.2729 C   0  0  0  0  0  0  0  0  0  0  0  0
    5.1789    3.7067   -1.8971 C   0  0  0  0  0  0  0  0  0  0  0  0
    2.0026    4.6838   -2.5437 C   0  0  0  0  0  0  0  0  0  0  0  0
    2.9859    6.0405   -0.7686 C   0  0  0  0  0  0  0  0  0  0  0  0
    2.1555    2.2061   -2.4032 C   0  0  0  0  0  0  0  0  0  0  0  0
    0.9195    4.7180   -3.5907 C   0  0  0  0  0  0  0  0  0  0  0  0
    2.8096    7.3712   -0.0854 C   0  0  0  0  0  0  0  0  0  0  0  0
    4.2045    4.9697    1.1254 C   0  0  0  0  0  0  0  0  0  0  0  0
    6.1896    2.7362   -1.7107 C   0  0  0  0  0  0  0  0  0  0  0  0
    5.4175    4.7133   -2.8652 C   0  0  0  0  0  0  0  0  0  0  0  0
    7.3625    2.7759   -2.4987 C   0  0  0  0  0  0  0  0  0  0  0  0
    6.5837    4.7544   -3.6277 C   0  0  0  0  0  0  0  0  0  0  0  0
    7.5536    3.7805   -3.4509 C   0  0  0  0  0  0  0  0  0  0  0  0
    2.8530   -0.0828   -2.3948 C   0  0  0  0  0  0  0  0  0  0  0  0
    5.3554    3.6318    2.6879 C   0  0  0  0  0  0  0  0  0  0  0  0
    2.5550   -0.4371   -3.8373 C   0  0  0  0  0  0  0  0  0  0  0  0
  1 18  1  0  0  0  0
  2 20  1  0  0  0  0
  3 14  1  0  0  0  0
  3 23  1  0  0  0  0
  4 17  1  0  0  0  0
  4 24  1  0  0  0  0
  5 14  2  0  0  0  0
  6 17  2  0  0  0  0
  7 12  1  0  0  0  0
  7 13  1  0  0  0  0
  8  9  1  0  0  0  0
  8 10  1  0  0  0  0
  8 11  1  0  0  0  0
  9 12  2  0  0  0  0
  9 14  1  0  0  0  0
 10 13  2  0  0  0  0
 10 17  1  0  0  0  0
 11 18  2  0  0  0  0
 11 19  1  0  0  0  0
 12 15  1  0  0  0  0
 13 16  1  0  0  0  0
 18 20  1  0  0  0  0
 19 21  2  0  0  0  0
 20 22  2  0  0  0  0
 21 22  1  0  0  0  0
 23 25  1  0  0  0  0
M  END
