
 OpenBabel10141418003D

 72 75  0  0  0  0  0  0  0  0999 V2000
    1.8652    2.5062   15.0750 N   0  0  0  0  0  0  0  0  0  0  0  0
    1.8158    2.5345   16.4479 C   0  0  0  0  0  0  0  0  0  0  0  0
    2.0288    1.1969   17.1530 C   0  0  0  0  0  0  0  0  0  0  0  0
    3.4278    0.8527   17.3096 N   0  0  0  0  0  0  0  0  0  0  0  0
    4.1449   -0.1586   16.7183 C   0  0  0  0  0  0  0  0  0  0  0  0
    3.3920   -1.1058   15.7514 C   0  0  1  0  0  0  0  0  0  0  0  0
    4.1492   -1.1998   14.4606 N   0  0  0  0  0  0  0  0  0  0  0  0
    3.5919   -1.9187   13.3810 C   0  0  0  0  0  0  0  0  0  0  0  0
    2.5084   -2.3049   13.4616 O   0  0  0  0  0  0  0  0  0  0  0  0
    1.6394    3.5763   17.0418 O   0  0  0  0  0  0  0  0  0  0  0  0
    5.3037   -0.3333   17.0122 O   0  0  0  0  0  0  0  0  0  0  0  0
    3.1053   -2.3417   16.7023 C   0  0  0  0  0  0  0  0  0  0  0  0
    3.1553   -3.6962   16.0890 C   0  0  0  0  0  0  0  0  0  0  0  0
    2.5191   -5.0294   17.0388 C   0  0  0  0  0  0  0  0  0  0  0  0
    0.8389   -4.9809   17.8133 C   0  0  0  0  0  0  0  0  0  0  0  0
    4.3776   -2.1803   12.0180 C   0  0  2  0  0  0  0  0  0  0  0  0
    5.4417   -1.1822   11.6646 C   0  0  0  0  0  0  0  0  0  0  0  0
    3.3947   -1.9634   10.9353 N   0  0  0  0  0  0  0  0  0  0  0  0
    4.6089    0.0514   11.3731 C   0  0  0  0  0  0  0  0  0  0  0  0
    3.3289   -0.5103   10.7219 C   0  0  0  0  0  0  0  0  0  0  0  0
    2.6127   -2.8241   10.1664 C   0  0  0  0  0  0  0  0  0  0  0  0
    2.5439   -4.4200   10.2873 C   0  0  1  0  0  0  0  0  0  0  0  0
    3.4038   -5.4530    9.6623 N   0  0  0  0  0  0  0  0  0  0  0  0
    3.1637   -6.5678    8.9281 C   0  0  0  0  0  0  0  0  0  0  0  0
    2.1670   -7.8788    9.1589 C   0  0  1  0  0  0  0  0  0  0  0  0
    2.8636   -9.1332    9.6408 N   0  0  0  0  0  0  0  0  0  0  0  0
    1.8854   -2.3252    9.3015 O   0  0  0  0  0  0  0  0  0  0  0  0
    2.2304   -4.8476   11.6746 C   0  0  0  0  0  0  0  0  0  0  0  0
    3.5794   -4.9791   12.7966 S   0  0  0  0  0  0  0  0  0  0  0  0
    2.3696   -5.8747   14.1101 S   0  0  0  0  0  0  0  0  0  0  0  0
    3.9425   -6.6696    7.9730 O   0  0  0  0  0  0  0  0  0  0  0  0
    0.6383   -7.9265    9.2041 C   0  0  0  0  0  0  0  0  0  0  0  0
    0.0502   -7.4028   10.4291 C   0  0  0  0  0  0  0  0  0  0  0  0
   -0.5726   -8.1321   11.2791 O   0  0  0  0  0  0  0  0  0  0  0  0
    0.1088   -6.1433   10.6757 N   0  0  0  0  0  0  0  0  0  0  0  0
    2.5139  -10.2078   10.4249 C   0  0  0  0  0  0  0  0  0  0  0  0
    1.9079  -10.1313   11.8759 C   0  0  2  0  0  0  0  0  0  0  0  0
    2.8595  -11.3119    9.9955 O   0  0  0  0  0  0  0  0  0  0  0  0
    2.9852   -9.6546   12.8583 C   0  0  0  0  0  0  0  0  0  0  0  0
    4.2187  -10.5641   12.9828 C   0  0  0  0  0  0  0  0  0  0  0  0
    5.1926  -10.0055   13.9784 C   0  0  0  0  0  0  0  0  0  0  0  0
    4.7336   -9.7776   15.2213 N   0  0  0  0  0  0  0  0  0  0  0  0
    6.3870   -9.7415   13.6807 O   0  0  0  0  0  0  0  0  0  0  0  0
    1.3697  -11.4972   12.1967 N   0  0  0  0  0  0  0  0  0  0  0  0
   -2.5602  -12.5579   14.4145 C   0  0  0  0  0  0  0  0  0  0  0  0
   -3.1496  -11.5159   15.1453 C   0  0  0  0  0  0  0  0  0  0  0  0
   -1.3033  -12.3453   13.5739 C   0  0  0  0  0  0  0  0  0  0  0  0
   -0.0173  -11.9422   14.3389 C   0  0  1  0  0  0  0  0  0  0  0  0
    1.2496  -12.1014   13.4348 C   0  0  0  0  0  0  0  0  0  0  0  0
   -4.3834  -13.9946   15.1776 C   0  0  0  0  0  0  0  0  0  0  0  0
   -4.9263  -12.9499   15.9201 C   0  0  0  0  0  0  0  0  0  0  0  0
   -3.2131  -13.8015   14.4286 C   0  0  0  0  0  0  0  0  0  0  0  0
   -4.3080  -11.7089   15.9018 C   0  0  0  0  0  0  0  0  0  0  0  0
   -0.0311   -8.2465   16.3379 N   0  0  0  0  0  0  0  0  0  0  0  0
    0.9485   -7.2730   16.4728 C   0  0  0  0  0  0  0  0  0  0  0  0
   -0.0311   -5.8843   15.4631 C   0  0  2  0  0  0  0  0  0  0  0  0
    0.8945   -4.7596   14.9054 C   0  0  0  0  0  0  0  0  0  0  0  0
    0.3938  -10.6274   16.3530 C   0  0  0  0  0  0  0  0  0  0  0  0
    1.1465  -11.4254   16.7540 O   0  0  0  0  0  0  0  0  0  0  0  0
   -0.0717   -9.4323   17.2447 C   0  0  2  0  0  0  0  0  0  0  0  0
   -0.1471  -10.6759   15.0558 N   0  0  0  0  0  0  0  0  0  0  0  0
    2.0811  -12.9480   13.7122 O   0  0  0  0  0  0  0  0  0  0  0  0
   -1.4727   -9.4929   17.9204 C   0  0  0  0  0  0  0  0  0  0  0  0
   -0.8520  -11.6460   19.1396 C   0  0  0  0  0  0  0  0  0  0  0  0
   -1.7920  -10.6600   18.8384 C   0  0  0  0  0  0  0  0  0  0  0  0
   -1.1893  -12.7864   19.8675 C   0  0  0  0  0  0  0  0  0  0  0  0
   -2.4756  -12.9374   20.3637 C   0  0  0  0  0  0  0  0  0  0  0  0
   -3.0726  -10.7900   19.4100 C   0  0  0  0  0  0  0  0  0  0  0  0
   -3.4108  -11.9275   20.1589 C   0  0  0  0  0  0  0  0  0  0  0  0
   -1.3593   -5.1523   16.0845 N   0  0  0  0  0  0  0  0  0  0  0  0
    1.8139   -7.4262   17.1515 O   0  0  0  0  0  0  0  0  0  0  0  0
   -0.4047   -6.1149   18.1655 N   0  0  0  0  0  0  0  0  0  0  0  0
  2  1  1  0  0  0  0
  3  2  1  0  0  0  0
  4  3  1  0  0  0  0
  5  4  1  0  0  0  0
  6  5  1  1  0  0  0
  6 12  1  0  0  0  0
  7  6  1  0  0  0  0
  8  7  1  0  0  0  0
  9  8  2  0  0  0  0
 10  2  2  0  0  0  0
 11  5  2  0  0  0  0
 13 12  1  0  0  0  0
 14 13  1  0  0  0  0
 15 14  1  0  0  0  0
 16  8  1  1  0  0  0
 17 16  1  0  0  0  0
 18 16  1  0  0  0  0
 19 17  1  0  0  0  0
 20 18  1  0  0  0  0
 20 19  1  0  0  0  0
 21 18  1  0  0  0  0
 22 21  1  1  0  0  0
 23 22  1  0  0  0  0
 24 23  1  0  0  0  0
 25 24  1  0  0  0  0
 25 32  1  1  0  0  0
 26 25  1  0  0  0  0
 27 21  2  0  0  0  0
 28 22  1  0  0  0  0
 29 28  1  0  0  0  0
 30 29  1  0  0  0  0
 31 24  2  0  0  0  0
 33 32  1  0  0  0  0
 34 33  2  0  0  0  0
 35 33  1  0  0  0  0
 36 26  1  0  0  0  0
 37 36  1  0  0  0  0
 37 39  1  1  0  0  0
 38 36  2  0  0  0  0
 40 39  1  0  0  0  0
 41 40  1  0  0  0  0
 42 41  1  0  0  0  0
 43 41  2  0  0  0  0
 44 37  1  0  0  0  0
 46 45  2  0  0  0  0
 47 45  1  0  0  0  0
 48 47  1  6  0  0  0
 49 44  1  0  0  0  0
 49 48  1  0  0  0  0
 51 50  1  0  0  0  0
 52 45  1  0  0  0  0
 52 50  2  0  0  0  0
 53 46  1  0  0  0  0
 53 51  2  0  0  0  0
 55 54  1  0  0  0  0
 56 55  1  0  0  0  0
 56 70  1  1  0  0  0
 57 30  1  0  0  0  0
 57 56  1  0  0  0  0
 59 58  2  0  0  0  0
 60 54  1  0  0  0  0
 60 58  1  0  0  0  0
 60 63  1  6  0  0  0
 61 48  1  0  0  0  0
 61 58  1  0  0  0  0
 62 49  2  0  0  0  0
 65 63  1  0  0  0  0
 65 64  1  0  0  0  0
 66 64  2  0  0  0  0
 67 66  1  0  0  0  0
 68 65  2  0  0  0  0
 69 67  2  0  0  0  0
 69 68  1  0  0  0  0
 71 55  2  0  0  0  0
 72 15  1  0  0  0  0
M  END
