1463
 OpenBabel10141417483D

 16 18  0  0  1  0  0  0  0  0999 V2000
    1.1441   -0.1271    0.3085 N   0  0  0  0  0  0  0  0  0  0  0  0
    1.5223   -3.0876    2.1791 C   0  0  3  0  0  0  0  0  0  0  0  0
    1.5484   -2.5660    0.0103 C   0  0  3  0  0  0  0  0  0  0  0  0
    0.6051   -1.8301    2.1155 C   0  0  3  0  0  0  0  0  0  0  0  0
    0.6029   -1.4743    0.5861 C   0  0  3  0  0  0  0  0  0  0  0  0
    2.5819   -2.7431    1.1246 C   0  0  0  0  0  0  0  0  0  0  0  0
    0.8619   -4.3120    1.5277 C   0  0  0  0  0  0  0  0  0  0  0  0
    0.8223   -3.9279    0.0434 C   0  0  0  0  0  0  0  0  0  0  0  0
   -0.7417   -1.9698    2.8001 C   0  0  0  0  0  0  0  0  0  0  0  0
    0.2437    0.9227    0.7985 C   0  0  0  0  0  0  0  0  0  0  0  0
   -1.8883   -2.4415    2.1383 C   0  0  0  0  0  0  0  0  0  0  0  0
   -0.8642   -1.6207    4.1531 C   0  0  0  0  0  0  0  0  0  0  0  0
    0.7908    2.3078    0.4819 C   0  0  0  0  0  0  0  0  0  0  0  0
   -3.1116   -2.5522    2.8032 C   0  0  0  0  0  0  0  0  0  0  0  0
   -2.0891   -1.7287    4.8189 C   0  0  0  0  0  0  0  0  0  0  0  0
   -3.2142   -2.1962    4.1405 C   0  0  0  0  0  0  0  0  0  0  0  0
  1  5  1  0  0  0  0
  1 10  1  0  0  0  0
  2  4  1  0  0  0  0
  2  6  1  0  0  0  0
  2  7  1  0  0  0  0
  3  5  1  0  0  0  0
  3  6  1  0  0  0  0
  3  8  1  0  0  0  0
  4  5  1  0  0  0  0
  4  9  1  0  0  0  0
  7  8  1  0  0  0  0
  9 11  2  0  0  0  0
  9 12  1  0  0  0  0
 10 13  1  0  0  0  0
 11 14  1  0  0  0  0
 12 15  2  0  0  0  0
 14 16  2  0  0  0  0
 15 16  1  0  0  0  0
M  END
