1482
 OpenBabel10141418063D

 26 27  0  0  1  0  0  0  0  0999 V2000
    0.6720    0.2059    2.7050 Cl  0  0  0  0  0  0  0  0  0  0  0  0
    1.6720    1.7608    2.7714 O   0  0  0  0  0  0  0  0  0  0  0  0
    5.7326   -0.0575    3.6761 O   0  0  0  0  0  0  0  0  0  0  0  0
    2.6435    2.3250    0.0889 N   0  0  0  0  0  0  0  0  0  0  0  0
   -0.1952    4.8833    0.4315 N   0  0  0  0  0  0  0  0  0  0  0  0
    5.3498    0.6773    1.5778 N   0  0  0  0  0  0  0  0  0  0  0  0
    3.6868    0.8538    3.3204 N   0  0  0  0  0  0  0  0  0  0  0  0
    4.7199    1.6841   -0.5186 N   0  0  0  0  0  0  0  0  0  0  0  0
   -0.3084    6.2950    0.8693 C   0  0  3  0  0  0  0  0  0  0  0  0
    1.2748    2.8847    0.0358 C   0  0  0  0  0  0  0  0  0  0  0  0
    1.1850    4.3629    0.4992 C   0  0  0  0  0  0  0  0  0  0  0  0
    3.2367    1.6860    1.1249 C   0  0  0  0  0  0  0  0  0  0  0  0
   -1.7648    6.8844    0.8109 C   0  0  0  0  0  0  0  0  0  0  0  0
    4.4812    1.3104    0.7471 C   0  0  0  0  0  0  0  0  0  0  0  0
    0.1928    6.3843    2.3156 C   0  0  0  0  0  0  0  0  0  0  0  0
    3.5870    2.3180   -0.8962 C   0  0  0  0  0  0  0  0  0  0  0  0
    2.7933    1.4334    2.4213 C   0  0  0  0  0  0  0  0  0  0  0  0
   -1.9162    8.3280    1.2525 C   0  0  0  0  0  0  0  0  0  0  0  0
    4.9544    0.4633    2.8880 C   0  0  0  0  0  0  0  0  0  0  0  0
    6.6803    0.2653    1.1128 C   0  0  0  0  0  0  0  0  0  0  0  0
    3.3412    0.6972    4.7425 C   0  0  0  0  0  0  0  0  0  0  0  0
   -1.7924    9.3766    0.3215 C   0  0  0  0  0  0  0  0  0  0  0  0
   -2.1997    8.6391    2.5966 C   0  0  0  0  0  0  0  0  0  0  0  0
   -2.0014   10.7024    0.7202 C   0  0  0  0  0  0  0  0  0  0  0  0
   -2.4157    9.9642    2.9861 C   0  0  0  0  0  0  0  0  0  0  0  0
   -2.3268   10.9937    2.0473 C   0  0  0  0  0  0  0  0  0  0  0  0
  2 17  2  0  0  0  0
  3 19  2  0  0  0  0
  4 10  1  0  0  0  0
  4 12  1  0  0  0  0
  4 16  1  0  0  0  0
  5  9  1  0  0  0  0
  5 11  1  0  0  0  0
  6 14  1  0  0  0  0
  6 19  1  0  0  0  0
  6 20  1  0  0  0  0
  7 17  1  0  0  0  0
  7 19  1  0  0  0  0
  7 21  1  0  0  0  0
  8 14  1  0  0  0  0
  8 16  2  0  0  0  0
  9 13  1  0  0  0  0
  9 15  1  0  0  0  0
 10 11  1  0  0  0  0
 12 14  2  0  0  0  0
 12 17  1  0  0  0  0
 13 18  1  0  0  0  0
 18 22  2  0  0  0  0
 18 23  1  0  0  0  0
 22 24  1  0  0  0  0
 23 25  2  0  0  0  0
 24 26  2  0  0  0  0
 25 26  1  0  0  0  0
M  END
