1288
 OpenBabel10141417533D

 22 23  0  0  1  0  0  0  0  0999 V2000
    0.0212    0.5167    0.2148 O   0  0  0  0  0  0  0  0  0  0  0  0
    1.4105   -2.7367    4.0813 O   0  0  0  0  0  0  0  0  0  0  0  0
    3.1125   -4.3864    0.0040 O   0  0  0  0  0  0  0  0  0  0  0  0
    3.7744    4.9895   -5.5412 O   0  0  0  0  0  0  0  0  0  0  0  0
    1.9116    2.6854    0.1072 N   0  0  0  0  0  0  0  0  0  0  0  0
    2.6594    3.8184    0.7039 C   0  0  3  0  0  0  0  0  0  0  0  0
    2.3630    5.1410   -0.0499 C   0  0  0  0  0  0  0  0  0  0  0  0
    2.2190    1.3970    0.7636 C   0  0  0  0  0  0  0  0  0  0  0  0
    1.4200    0.2379    0.1239 C   0  0  3  0  0  0  0  0  0  0  0  0
    2.3000    4.0165    2.1836 C   0  0  0  0  0  0  0  0  0  0  0  0
    2.7374    5.1332   -1.5144 C   0  0  0  0  0  0  0  0  0  0  0  0
    1.6976   -1.0883    0.7968 C   0  0  0  0  0  0  0  0  0  0  0  0
    1.7847    4.7564   -2.4749 C   0  0  0  0  0  0  0  0  0  0  0  0
    4.0264    5.4714   -1.9348 C   0  0  0  0  0  0  0  0  0  0  0  0
    2.2818   -2.1332    0.0731 C   0  0  0  0  0  0  0  0  0  0  0  0
    1.3957   -1.2923    2.1608 C   0  0  0  0  0  0  0  0  0  0  0  0
    1.6740   -2.5214    2.7683 C   0  0  0  0  0  0  0  0  0  0  0  0
    2.5504   -3.3539    0.6911 C   0  0  0  0  0  0  0  0  0  0  0  0
    2.1167    4.7030   -3.8305 C   0  0  0  0  0  0  0  0  0  0  0  0
    4.3578    5.4279   -3.2915 C   0  0  0  0  0  0  0  0  0  0  0  0
    3.4044    5.0363   -4.2266 C   0  0  0  0  0  0  0  0  0  0  0  0
    2.2512   -3.5523    2.0349 C   0  0  0  0  0  0  0  0  0  0  0  0
  1  9  1  0  0  0  0
  2 17  1  0  0  0  0
  3 18  1  0  0  0  0
  4 21  1  0  0  0  0
  5  6  1  0  0  0  0
  5  8  1  0  0  0  0
  6  7  1  0  0  0  0
  6 10  1  0  0  0  0
  7 11  1  0  0  0  0
  8  9  1  0  0  0  0
  9 12  1  0  0  0  0
 11 13  2  0  0  0  0
 11 14  1  0  0  0  0
 12 15  2  0  0  0  0
 12 16  1  0  0  0  0
 13 19  1  0  0  0  0
 14 20  2  0  0  0  0
 15 18  1  0  0  0  0
 16 17  2  0  0  0  0
 17 22  1  0  0  0  0
 18 22  2  0  0  0  0
 19 21  2  0  0  0  0
 20 21  1  0  0  0  0
M  END
