573
 OpenBabel10141417513D

 18 19  0  0  1  0  0  0  0  0999 V2000
   -1.2773    1.4803   -0.3927 O   0  0  0  0  0  0  0  0  0  0  0  0
    0.8108    6.2917    1.7138 O   0  0  0  0  0  0  0  0  0  0  0  0
    0.7953    8.1608    0.4590 O   0  0  0  0  0  0  0  0  0  0  0  0
    0.7695    6.0043   -0.6821 C   0  0  3  0  0  0  0  0  0  0  0  0
   -0.4526    5.1011   -0.6945 C   0  0  0  0  0  0  0  0  0  0  0  0
   -0.2894    3.7139   -0.5558 C   0  0  0  0  0  0  0  0  0  0  0  0
    0.9190    6.7981   -1.9795 C   0  0  0  0  0  0  0  0  0  0  0  0
   -1.7498    5.6197   -0.7965 C   0  0  0  0  0  0  0  0  0  0  0  0
   -1.3905    2.8521   -0.5210 C   0  0  0  0  0  0  0  0  0  0  0  0
    0.7796    6.9333    0.5242 C   0  0  0  0  0  0  0  0  0  0  0  0
   -2.8565    4.7733   -0.7072 C   0  0  0  0  0  0  0  0  0  0  0  0
   -2.6786    3.3948   -0.5455 C   0  0  0  0  0  0  0  0  0  0  0  0
   -0.1342    0.8475   -0.8464 C   0  0  0  0  0  0  0  0  0  0  0  0
    0.4752    1.1436   -2.0714 C   0  0  0  0  0  0  0  0  0  0  0  0
    0.3880   -0.1780   -0.0530 C   0  0  0  0  0  0  0  0  0  0  0  0
    1.6324    0.4662   -2.4664 C   0  0  0  0  0  0  0  0  0  0  0  0
    1.5315   -0.8736   -0.4630 C   0  0  0  0  0  0  0  0  0  0  0  0
    2.1574   -0.5463   -1.6657 C   0  0  0  0  0  0  0  0  0  0  0  0
  1  9  1  0  0  0  0
  1 13  1  0  0  0  0
  2 10  1  0  0  0  0
  3 10  2  0  0  0  0
  4  5  1  0  0  0  0
  4  7  1  0  0  0  0
  4 10  1  0  0  0  0
  5  6  2  0  0  0  0
  5  8  1  0  0  0  0
  6  9  1  0  0  0  0
  8 11  2  0  0  0  0
  9 12  2  0  0  0  0
 11 12  1  0  0  0  0
 13 14  2  0  0  0  0
 13 15  1  0  0  0  0
 14 16  1  0  0  0  0
 15 17  2  0  0  0  0
 16 18  2  0  0  0  0
 17 18  1  0  0  0  0
M  END
