1550
 OpenBabel10141418073D

 14 14  0  0  1  0  0  0  0  0999 V2000
   -0.2831   -0.3415    0.7865 N   0  0  0  0  0  0  0  0  0  0  0  0
   -4.2066   -1.6434   -1.7847 N   0  0  0  0  0  0  0  0  0  0  0  0
    0.2229   -0.8536    2.0831 C   0  0  3  0  0  0  0  0  0  0  0  0
   -0.7093   -0.6528    3.3172 C   0  0  0  0  0  0  0  0  0  0  0  0
   -0.9563    0.7783    3.7596 C   0  0  0  0  0  0  0  0  0  0  0  0
    0.6145   -2.3359    1.9386 C   0  0  0  0  0  0  0  0  0  0  0  0
   -1.5073   -1.0003    0.3082 C   0  0  0  0  0  0  0  0  0  0  0  0
   -0.1206    1.4024    4.7001 C   0  0  0  0  0  0  0  0  0  0  0  0
   -2.0401    1.5078    3.2513 C   0  0  0  0  0  0  0  0  0  0  0  0
   -1.9794   -0.4283   -1.0341 C   0  0  0  0  0  0  0  0  0  0  0  0
   -0.3083    2.7463    5.0456 C   0  0  0  0  0  0  0  0  0  0  0  0
   -2.2457    2.8415    3.6206 C   0  0  0  0  0  0  0  0  0  0  0  0
   -1.3631    3.4699    4.4952 C   0  0  0  0  0  0  0  0  0  0  0  0
   -3.2200   -1.0958   -1.4557 C   0  0  0  0  0  0  0  0  0  0  0  0
  1  3  1  0  0  0  0
  1  7  1  0  0  0  0
  2 14  3  0  0  0  0
  3  4  1  0  0  0  0
  3  6  1  0  0  0  0
  4  5  1  0  0  0  0
  5  8  2  0  0  0  0
  5  9  1  0  0  0  0
  7 10  1  0  0  0  0
  8 11  1  0  0  0  0
  9 12  2  0  0  0  0
 10 14  1  0  0  0  0
 11 13  2  0  0  0  0
 12 13  1  0  0  0  0
M  END
