813
 OpenBabel10141417483D

 25 27  0  0  0  0  0  0  0  0999 V2000
    3.5192   -5.6821   -0.8583 O   0  0  0  0  0  0  0  0  0  0  0  0
    6.0074   -1.0408   -0.4720 N   0  0  0  0  0  0  0  0  0  0  0  0
    4.5019   -4.4072    0.7993 N   0  0  0  0  0  0  0  0  0  0  0  0
    4.0198   -3.1714    0.1275 C   0  0  0  0  0  0  0  0  0  0  0  0
    4.6864   -2.9699   -1.2528 C   0  0  0  0  0  0  0  0  0  0  0  0
    4.0998   -1.8375    0.8879 C   0  0  0  0  0  0  0  0  0  0  0  0
    6.0687   -2.3386   -1.1560 C   0  0  0  0  0  0  0  0  0  0  0  0
    5.5042   -1.2245    0.8991 C   0  0  0  0  0  0  0  0  0  0  0  0
    7.3179   -0.3525   -0.4756 C   0  0  0  0  0  0  0  0  0  0  0  0
    7.7987   -0.0127   -1.9004 C   0  0  0  0  0  0  0  0  0  0  0  0
    4.9588   -4.3792    2.1459 C   0  0  0  0  0  0  0  0  0  0  0  0
    4.1757   -5.6317    0.1963 C   0  0  0  0  0  0  0  0  0  0  0  0
    9.0969    0.7522   -1.9475 C   0  0  0  0  0  0  0  0  0  0  0  0
    4.6670   -6.9160    0.8461 C   0  0  0  0  0  0  0  0  0  0  0  0
    4.0702   -4.4671    3.2246 C   0  0  0  0  0  0  0  0  0  0  0  0
    6.3352   -4.4094    2.3865 C   0  0  0  0  0  0  0  0  0  0  0  0
    4.3296   -8.1364   -0.0067 C   0  0  0  0  0  0  0  0  0  0  0  0
   10.3213    0.0738   -2.0324 C   0  0  0  0  0  0  0  0  0  0  0  0
    9.0892    2.1516   -1.9583 C   0  0  0  0  0  0  0  0  0  0  0  0
    4.5632   -4.6047    4.5300 C   0  0  0  0  0  0  0  0  0  0  0  0
    6.8236   -4.5493    3.6880 C   0  0  0  0  0  0  0  0  0  0  0  0
    5.9384   -4.6589    4.7584 C   0  0  0  0  0  0  0  0  0  0  0  0
   11.5154    0.7862   -2.1479 C   0  0  0  0  0  0  0  0  0  0  0  0
   10.2840    2.8615   -2.0734 C   0  0  0  0  0  0  0  0  0  0  0  0
   11.4957    2.1795   -2.1718 C   0  0  0  0  0  0  0  0  0  0  0  0
  1 12  2  0  0  0  0
  2  7  1  0  0  0  0
  2  8  1  0  0  0  0
  2  9  1  0  0  0  0
  3  4  1  0  0  0  0
  3 11  1  0  0  0  0
  3 12  1  0  0  0  0
  4  5  1  0  0  0  0
  4  6  1  0  0  0  0
  5  7  1  0  0  0  0
  6  8  1  0  0  0  0
  9 10  1  0  0  0  0
 10 13  1  0  0  0  0
 11 15  2  0  0  0  0
 11 16  1  0  0  0  0
 12 14  1  0  0  0  0
 13 18  2  0  0  0  0
 13 19  1  0  0  0  0
 14 17  1  0  0  0  0
 15 20  1  0  0  0  0
 16 21  2  0  0  0  0
 18 23  1  0  0  0  0
 19 24  2  0  0  0  0
 20 22  2  0  0  0  0
 21 22  1  0  0  0  0
 23 25  2  0  0  0  0
 24 25  1  0  0  0  0
M  END
