
 OpenBabel10141417543D

 30 31  0  0  1  0  0  0  0  0999 V2000
    3.6907    6.2176   -1.3215 C   0  0  0  0  0  0  0  0  0  0  0  0
    4.5267    6.6708   -2.5257 C   0  0  0  0  0  0  0  0  0  0  0  0
    4.2310    8.0992   -3.0025 C   0  0  0  0  0  0  0  0  0  0  0  0
    6.0190    6.5437   -2.2306 C   0  0  0  0  0  0  0  0  0  0  0  0
    6.5246    6.6604   -1.0761 O   0  0  0  0  0  0  0  0  0  0  0  0
    6.7086    6.3952   -3.4407 O   0  0  0  0  0  0  0  0  0  0  0  0
    7.8980    7.1374   -3.7268 C   0  0  0  0  0  0  0  0  0  0  0  0
    8.6469    6.9106   -4.9148 C   0  0  0  0  0  0  0  0  0  0  0  0
    9.6314    7.9012   -5.1868 C   0  0  0  0  0  0  0  0  0  0  0  0
    9.9665    8.9538   -4.3064 C   0  0  0  0  0  0  0  0  0  0  0  0
    9.2324    9.1078   -3.1414 C   0  0  0  0  0  0  0  0  0  0  0  0
    8.1919    8.2304   -2.8695 C   0  0  0  0  0  0  0  0  0  0  0  0
   11.0539    9.9299   -4.6767 C   0  0  0  0  0  0  0  0  0  0  0  0
   11.7317   10.4302   -3.5295 O   0  0  0  0  0  0  0  0  0  0  0  0
    8.4566    5.7176   -5.9515 C   0  0  2  0  0  0  0  0  0  0  0  0
    8.4527    4.2923   -5.2633 C   0  0  0  0  0  0  0  0  0  0  0  0
    8.0016    3.0701   -6.1502 C   0  0  0  0  0  0  0  0  0  0  0  0
    8.0329    1.6757   -5.5356 N   0  0  0  0  0  0  0  0  0  0  0  0
    7.6491    0.6244   -6.5600 C   0  0  0  0  0  0  0  0  0  0  0  0
    8.7357    0.4487   -7.6422 C   0  0  0  0  0  0  0  0  0  0  0  0
    7.4235   -0.8363   -6.1075 C   0  0  0  0  0  0  0  0  0  0  0  0
    7.3624    1.6263   -4.1982 C   0  0  0  0  0  0  0  0  0  0  0  0
    5.9034    2.1082   -4.1735 C   0  0  0  0  0  0  0  0  0  0  0  0
    7.4489    0.3065   -3.4049 C   0  0  0  0  0  0  0  0  0  0  0  0
    9.5132    5.7290   -7.1068 C   0  0  0  0  0  0  0  0  0  0  0  0
    9.1871    6.0802   -8.4324 C   0  0  0  0  0  0  0  0  0  0  0  0
   10.1919    6.2403   -9.4074 C   0  0  0  0  0  0  0  0  0  0  0  0
   11.5307    6.0187   -9.0898 C   0  0  0  0  0  0  0  0  0  0  0  0
   11.8659    5.6070   -7.8056 C   0  0  0  0  0  0  0  0  0  0  0  0
   10.8721    5.4692   -6.8285 C   0  0  0  0  0  0  0  0  0  0  0  0
  1  2  1  0  0  0  0
  2  3  1  0  0  0  0
  2  4  1  0  0  0  0
  4  5  2  0  0  0  0
  4  6  1  0  0  0  0
  6  7  1  0  0  0  0
  7  8  2  0  0  0  0
  7 12  1  0  0  0  0
  8  9  1  0  0  0  0
  9 10  2  0  0  0  0
 10 11  1  0  0  0  0
 10 13  1  0  0  0  0
 11 12  2  0  0  0  0
 13 14  1  0  0  0  0
 15 25  1  6  0  0  0
 15 16  1  0  0  0  0
 15  8  1  0  0  0  0
 16 17  1  0  0  0  0
 17 18  1  0  0  0  0
 18 19  1  0  0  0  0
 18 22  1  0  0  0  0
 19 20  1  0  0  0  0
 19 21  1  0  0  0  0
 22 23  1  0  0  0  0
 22 24  1  0  0  0  0
 25 26  2  0  0  0  0
 25 30  1  0  0  0  0
 26 27  1  0  0  0  0
 27 28  2  0  0  0  0
 28 29  1  0  0  0  0
 29 30  2  0  0  0  0
M  END
