950
 OpenBabel10141417493D

 37 40  0  0  1  0  0  0  0  0999 V2000
    1.1406    1.8482    0.4375 O   0  0  0  0  0  0  0  0  0  0  0  0
    5.3396   -0.6371    7.2128 O   0  0  0  0  0  0  0  0  0  0  0  0
    4.6238    6.5016   10.8449 O   0  0  0  0  0  0  0  0  0  0  0  0
    3.1107    5.4208   12.0604 O   0  0  0  0  0  0  0  0  0  0  0  0
    3.7199   -0.1749    1.9534 N   0  0  0  0  0  0  0  0  0  0  0  0
    1.9415   -0.1997   -0.5712 C   0  0  3  0  0  0  0  0  0  0  0  0
    1.6607   -1.0722    0.6822 C   0  0  0  0  0  0  0  0  0  0  0  0
    3.4638    0.0329   -0.5587 C   0  0  0  0  0  0  0  0  0  0  0  0
    0.9861    1.0728   -0.7658 C   0  0  0  0  0  0  0  0  0  0  0  0
    2.3245   -0.6377    2.0099 C   0  0  0  0  0  0  0  0  0  0  0  0
    4.0102    0.6142    0.7432 C   0  0  0  0  0  0  0  0  0  0  0  0
    4.0963    0.6464    3.1440 C   0  0  0  0  0  0  0  0  0  0  0  0
   -0.5160    0.6685   -0.8532 C   0  0  0  0  0  0  0  0  0  0  0  0
    1.3369    1.9885   -1.9873 C   0  0  0  0  0  0  0  0  0  0  0  0
    4.0203   -0.0081    4.5448 C   0  0  0  0  0  0  0  0  0  0  0  0
    4.4355    0.9943    5.6636 C   0  0  0  0  0  0  0  0  0  0  0  0
   -0.9440   -0.5190   -1.4814 C   0  0  0  0  0  0  0  0  0  0  0  0
    1.1112    3.3871   -1.9488 C   0  0  0  0  0  0  0  0  0  0  0  0
   -1.5243    1.4981   -0.3182 C   0  0  0  0  0  0  0  0  0  0  0  0
    1.8466    1.4748   -3.1947 C   0  0  0  0  0  0  0  0  0  0  0  0
    4.3694    0.4066    7.0907 C   0  0  3  0  0  0  0  0  0  0  0  0
   -2.2989   -0.8748   -1.5402 C   0  0  0  0  0  0  0  0  0  0  0  0
    1.4766    4.2287   -3.0152 C   0  0  0  0  0  0  0  0  0  0  0  0
   -2.8814    1.1532   -0.3963 C   0  0  0  0  0  0  0  0  0  0  0  0
    2.1961    2.3138   -4.2678 C   0  0  0  0  0  0  0  0  0  0  0  0
    4.6055    1.4282    8.2022 C   0  0  0  0  0  0  0  0  0  0  0  0
   -3.2687   -0.0358   -1.0043 C   0  0  0  0  0  0  0  0  0  0  0  0
    2.0338    3.6917   -4.1704 C   0  0  0  0  0  0  0  0  0  0  0  0
    5.8736    1.6421    8.7550 C   0  0  0  0  0  0  0  0  0  0  0  0
    3.5431    2.1614    8.7514 C   0  0  0  0  0  0  0  0  0  0  0  0
    5.2379    4.2536   11.5552 C   0  0  0  0  0  0  0  0  0  0  0  0
    5.0121    3.2729   10.3862 C   0  0  0  0  0  0  0  0  0  0  0  0
    6.0702    2.5341    9.8262 C   0  0  0  0  0  0  0  0  0  0  0  0
    3.7392    3.0547    9.8258 C   0  0  0  0  0  0  0  0  0  0  0  0
    5.0545    3.5401   12.9191 C   0  0  0  0  0  0  0  0  0  0  0  0
    6.6599    4.8618   11.5581 C   0  0  0  0  0  0  0  0  0  0  0  0
    4.1982    5.4188   11.5530 C   0  0  0  0  0  0  0  0  0  0  0  0
  1  9  1  0  0  0  0
  2 21  1  0  0  0  0
  3 37  1  0  0  0  0
  4 37  2  0  0  0  0
  5 10  1  0  0  0  0
  5 11  1  0  0  0  0
  5 12  1  0  0  0  0
  6  7  1  0  0  0  0
  6  8  1  0  0  0  0
  6  9  1  0  0  0  0
  7 10  1  0  0  0  0
  8 11  1  0  0  0  0
  9 13  1  0  0  0  0
  9 14  1  0  0  0  0
 12 15  1  0  0  0  0
 13 17  2  0  0  0  0
 13 19  1  0  0  0  0
 14 18  2  0  0  0  0
 14 20  1  0  0  0  0
 15 16  1  0  0  0  0
 16 21  1  0  0  0  0
 17 22  1  0  0  0  0
 18 23  1  0  0  0  0
 19 24  2  0  0  0  0
 20 25  2  0  0  0  0
 21 26  1  0  0  0  0
 22 27  2  0  0  0  0
 23 28  2  0  0  0  0
 24 27  1  0  0  0  0
 25 28  1  0  0  0  0
 26 29  2  0  0  0  0
 26 30  1  0  0  0  0
 29 33  1  0  0  0  0
 30 34  2  0  0  0  0
 31 32  1  0  0  0  0
 31 35  1  0  0  0  0
 31 36  1  0  0  0  0
 31 37  1  0  0  0  0
 32 33  2  0  0  0  0
 32 34  1  0  0  0  0
M  END
