1216
 OpenBabel10141417503D

 27 30  0  0  1  0  0  0  0  0999 V2000
    7.2832    3.0583    8.0556 O   0  0  0  0  0  0  0  0  0  0  0  0
   13.3981   -2.9418    5.3036 O   0  0  0  0  0  0  0  0  0  0  0  0
   13.7484   -0.9264    6.3308 N   0  0  0  0  0  0  0  0  0  0  0  0
    7.7574    5.3005    7.8811 N   0  0  0  0  0  0  0  0  0  0  0  0
   10.4095    2.0405    8.2678 C   0  0  2  0  0  0  0  0  0  0  0  0
   10.5627    3.5709    8.4224 C   0  0  1  0  0  0  0  0  0  0  0  0
   11.5415    1.3075    7.5346 C   0  0  1  0  0  0  0  0  0  0  0  0
   11.7697    1.9772    6.1450 C   0  0  1  0  0  0  0  0  0  0  0  0
   12.8644    1.2185    5.2895 C   0  0  1  0  0  0  0  0  0  0  0  0
    9.2537    3.8967    9.1991 C   0  0  2  0  0  0  0  0  0  0  0  0
   10.7481    4.1755    7.0228 C   0  0  0  0  0  0  0  0  0  0  0  0
   11.9228    3.5178    6.2624 C   0  0  0  0  0  0  0  0  0  0  0  0
    9.9810    1.5601    9.6477 C   0  0  0  0  0  0  0  0  0  0  0  0
   12.8152    1.0853    8.3633 C   0  0  0  0  0  0  0  0  0  0  0  0
    9.1186    2.7121   10.1946 C   0  0  0  0  0  0  0  0  0  0  0  0
   13.9663    0.5208    6.1841 C   0  0  1  0  0  0  0  0  0  0  0  0
   14.1037    1.1713    7.5549 C   0  0  0  0  0  0  0  0  0  0  0  0
   11.7382    4.0494    9.3138 C   0  0  0  0  0  0  0  0  0  0  0  0
   13.5551    2.1590    4.2784 C   0  0  0  0  0  0  0  0  0  0  0  0
   12.1701    0.0997    4.4651 C   0  0  0  0  0  0  0  0  0  0  0  0
    7.9963    4.0171    8.3299 C   0  0  0  0  0  0  0  0  0  0  0  0
   12.9265   -0.9488    4.0728 C   0  0  0  0  0  0  0  0  0  0  0  0
   13.3541   -1.7207    5.2817 C   0  0  0  0  0  0  0  0  0  0  0  0
    6.5792    5.7021    7.0943 C   0  0  0  0  0  0  0  0  0  0  0  0
    6.6494    7.2233    6.8655 C   0  0  0  0  0  0  0  0  0  0  0  0
    6.5685    5.0069    5.7239 C   0  0  0  0  0  0  0  0  0  0  0  0
    5.2775    5.3936    7.8543 C   0  0  0  0  0  0  0  0  0  0  0  0
  1 21  2  0  0  0  0
  2 23  2  0  0  0  0
  3 23  1  0  0  0  0
  4 21  1  0  0  0  0
  4 24  1  0  0  0  0
  5  6  1  0  0  0  0
  5  7  1  0  0  0  0
  5 13  1  6  0  0  0
  6 10  1  0  0  0  0
  6 11  1  0  0  0  0
  6 18  1  6  0  0  0
  7  8  1  0  0  0  0
  7 14  1  1  0  0  0
  8  9  1  0  0  0  0
  8 12  1  6  0  0  0
  9 16  1  0  0  0  0
  9 20  1  0  0  0  0
  9 19  1  1  0  0  0
 10 15  1  0  0  0  0
 10 21  1  6  0  0  0
 11 12  1  0  0  0  0
 13 15  1  0  0  0  0
 14 17  1  0  0  0  0
 16  3  1  1  0  0  0
 16 17  1  0  0  0  0
 20 22  2  0  0  0  0
 22 23  1  0  0  0  0
 24 25  1  0  0  0  0
 24 26  1  0  0  0  0
 24 27  1  0  0  0  0
M  END
