
 OpenBabel10141417493D

 22 22  0  0  0  0  0  0  0  0999 V2000
   -1.1966    1.4606   -0.0114 C   0  0  0  0  0  0  0  0  0  0  0  0
   -1.5831    0.1199   -0.0652 C   0  0  0  0  0  0  0  0  0  0  0  0
   -0.7529   -0.8777    0.4288 C   0  0  0  0  0  0  0  0  0  0  0  0
    0.5135   -0.5125    0.9323 C   0  0  0  0  0  0  0  0  0  0  0  0
    0.9129    0.8250    0.9438 C   0  0  0  0  0  0  0  0  0  0  0  0
    0.0597    1.8338    0.5040 C   0  0  0  0  0  0  0  0  0  0  0  0
   -1.2210   -2.3249    0.5122 C   0  0  0  0  0  0  0  0  0  0  0  0
   -1.0501   -3.2026   -0.7345 C   0  0  0  0  0  0  0  0  0  0  0  0
    0.3761   -3.6886   -1.1207 C   0  0  0  0  0  0  0  0  0  0  0  0
    1.0622   -4.4503    0.0457 C   0  0  0  0  0  0  0  0  0  0  0  0
    2.3831   -4.8465   -0.3322 O   0  0  0  0  0  0  0  0  0  0  0  0
    0.2998   -4.6653   -2.3384 C   0  0  0  0  0  0  0  0  0  0  0  0
   -0.3532   -4.0779   -3.4650 O   0  0  0  0  0  0  0  0  0  0  0  0
    1.2071   -2.5535   -1.5794 N   0  0  0  0  0  0  0  0  0  0  0  0
    0.4489    3.2730    0.6995 C   0  0  0  0  0  0  0  0  0  0  0  0
   -0.1441    4.2843   -0.2914 C   0  0  0  0  0  0  0  0  0  0  0  0
    0.2952    5.7276   -0.0305 C   0  0  0  0  0  0  0  0  0  0  0  0
    1.8067    5.9144   -0.1616 C   0  0  0  0  0  0  0  0  0  0  0  0
    2.2321    7.3586    0.0921 C   0  0  0  0  0  0  0  0  0  0  0  0
    3.7519    7.5035   -0.0240 C   0  0  0  0  0  0  0  0  0  0  0  0
    4.1982    8.9388    0.2471 C   0  0  0  0  0  0  0  0  0  0  0  0
    5.7057    9.0914    0.1165 C   0  0  0  0  0  0  0  0  0  0  0  0
  1  2  1  0  0  0  0
  1  6  2  0  0  0  0
  2  3  2  0  0  0  0
  3  4  1  0  0  0  0
  3  7  1  0  0  0  0
  4  5  2  0  0  0  0
  5  6  1  0  0  0  0
  6 15  1  0  0  0  0
  7  8  1  0  0  0  0
  8  9  1  0  0  0  0
  9 10  1  0  0  0  0
  9 12  1  0  0  0  0
  9 14  1  0  0  0  0
 10 11  1  0  0  0  0
 12 13  1  0  0  0  0
 15 16  1  0  0  0  0
 16 17  1  0  0  0  0
 17 18  1  0  0  0  0
 18 19  1  0  0  0  0
 19 20  1  0  0  0  0
 20 21  1  0  0  0  0
 21 22  1  0  0  0  0
M  END
