
 OpenBabel10141417533D

 53 58  0  0  1  0  0  0  0  0999 V2000
    5.6390   15.5411   -3.3129 C   0  0  0  0  0  0  0  0  0  0  0  0
    4.6458   14.6913   -4.0529 C   0  0  0  0  0  0  0  0  0  0  0  0
    4.8321   14.4638   -5.4224 C   0  0  0  0  0  0  0  0  0  0  0  0
    3.9613   13.6524   -6.1592 C   0  0  0  0  0  0  0  0  0  0  0  0
    2.8334   13.0660   -5.5399 C   0  0  0  0  0  0  0  0  0  0  0  0
    2.6546   13.3084   -4.1677 C   0  0  0  0  0  0  0  0  0  0  0  0
    3.5415   14.1064   -3.4173 C   0  0  0  0  0  0  0  0  0  0  0  0
    3.2970   14.2184   -1.9368 C   0  0  0  0  0  0  0  0  0  0  0  0
    1.9594   12.2669   -6.3150 N   0  0  0  0  0  0  0  0  0  0  0  0
    0.6022   11.9631   -5.8325 C   0  0  0  0  0  0  0  0  0  0  0  0
   -0.5007   12.9510   -6.3108 C   0  0  2  0  0  0  0  0  0  0  0  0
   -1.7539   12.4256   -5.8294 O   0  0  0  0  0  0  0  0  0  0  0  0
   -0.3147   14.3988   -5.7793 C   0  0  2  0  0  0  0  0  0  0  0  0
    0.8878   14.9725   -6.2888 O   0  0  0  0  0  0  0  0  0  0  0  0
   -1.5030   15.3467   -6.0701 C   0  0  2  0  0  0  0  0  0  0  0  0
   -1.6664   15.4955   -7.4903 O   0  0  0  0  0  0  0  0  0  0  0  0
   -1.3433   16.7303   -5.4102 C   0  0  0  0  0  0  0  0  0  0  0  0
   -0.2530   17.4400   -5.9770 O   0  0  0  0  0  0  0  0  0  0  0  0
    0.1269   18.8637   -5.3374 P   0  0  2  0  0  0  0  0  0  0  0  0
    0.8591   19.5757   -6.5650 O   0  0  0  0  0  0  0  0  0  0  0  0
    0.9947   18.8254   -4.1231 O   0  0  0  0  0  0  0  0  0  0  0  0
   -1.2383   19.6381   -5.1473 O   0  0  0  0  0  0  0  0  0  0  0  0
   -1.7740   20.8703   -5.9713 P   0  0  1  0  0  0  0  0  0  0  0  0
   -2.8198   21.5359   -4.9494 O   0  0  0  0  0  0  0  0  0  0  0  0
   -0.7802   21.8988   -6.3972 O   0  0  0  0  0  0  0  0  0  0  0  0
   -2.7388   20.3053   -7.1222 O   0  0  0  0  0  0  0  0  0  0  0  0
   -3.6577   21.2331   -7.6918 C   0  0  0  0  0  0  0  0  0  0  0  0
   -4.4589   20.5767   -8.8199 C   0  0  1  0  0  0  0  0  0  0  0  0
   -5.2089   19.4699   -8.2521 O   0  0  0  0  0  0  0  0  0  0  0  0
   -6.6124   19.8020   -8.2785 C   0  0  2  0  0  0  0  0  0  0  0  0
   -6.6998   21.3071   -8.5576 C   0  0  2  0  0  0  0  0  0  0  0  0
   -7.8966   21.7095   -9.2222 O   0  0  0  0  0  0  0  0  0  0  0  0
   -5.4845   21.5315   -9.4331 C   0  0  2  0  0  0  0  0  0  0  0  0
   -5.7955   21.1518  -10.7756 O   0  0  0  0  0  0  0  0  0  0  0  0
   -7.2082   19.3347   -7.0414 N   0  0  0  0  0  0  0  0  0  0  0  0
   -7.2130   18.0263   -6.6201 C   0  0  0  0  0  0  0  0  0  0  0  0
   -7.8348   17.8785   -5.4681 N   0  0  0  0  0  0  0  0  0  0  0  0
   -8.2548   19.1475   -5.1289 C   0  0  0  0  0  0  0  0  0  0  0  0
   -7.8830   20.0634   -6.0993 C   0  0  0  0  0  0  0  0  0  0  0  0
   -8.1323   21.3840   -6.0953 N   0  0  0  0  0  0  0  0  0  0  0  0
   -8.7680   21.7625   -4.9717 C   0  0  0  0  0  0  0  0  0  0  0  0
   -9.1798   20.9888   -3.9510 N   0  0  0  0  0  0  0  0  0  0  0  0
   -8.9538   19.6571   -4.0209 C   0  0  0  0  0  0  0  0  0  0  0  0
   -9.4054   18.8694   -2.9713 N   0  0  0  0  0  0  0  0  0  0  0  0
    2.3019   11.9887   -7.6335 C   0  0  0  0  0  0  0  0  0  0  0  0
    1.6071   11.2044   -8.3984 N   0  0  0  0  0  0  0  0  0  0  0  0
    1.9469   10.9691   -9.7057 C   0  0  0  0  0  0  0  0  0  0  0  0
    1.4965   10.0340  -10.3404 O   0  0  0  0  0  0  0  0  0  0  0  0
    2.8226   11.8186  -10.3264 N   0  0  0  0  0  0  0  0  0  0  0  0
    3.8491   12.3943   -9.6526 C   0  0  0  0  0  0  0  0  0  0  0  0
    4.9440   12.6280  -10.1475 O   0  0  0  0  0  0  0  0  0  0  0  0
    3.5336   12.6531   -8.2063 C   0  0  0  0  0  0  0  0  0  0  0  0
    4.2842   13.4510   -7.5141 N   0  0  0  0  0  0  0  0  0  0  0  0
  1  2  1  0  0  0  0
  2  3  2  0  0  0  0
  2  7  1  0  0  0  0
  3  4  1  0  0  0  0
  4  5  2  0  0  0  0
  4 53  1  0  0  0  0
  5  6  1  0  0  0  0
  5  9  1  0  0  0  0
  6  7  2  0  0  0  0
  7  8  1  0  0  0  0
  9 10  1  0  0  0  0
  9 45  1  0  0  0  0
 11 12  1  6  0  0  0
 11 10  1  0  0  0  0
 13 14  1  1  0  0  0
 13 11  1  0  0  0  0
 15 17  1  1  0  0  0
 15 16  1  0  0  0  0
 15 13  1  0  0  0  0
 17 18  1  0  0  0  0
 19 21  2  1  0  0  0
 19 22  1  0  0  0  0
 19 20  1  0  0  0  0
 19 18  1  0  0  0  0
 23 22  1  1  0  0  0
 23 24  1  0  0  0  0
 23 25  2  0  0  0  0
 23 26  1  0  0  0  0
 26 27  1  0  0  0  0
 28 29  1  0  0  0  0
 28 33  1  0  0  0  0
 28 27  1  1  0  0  0
 29 30  1  0  0  0  0
 30 31  1  0  0  0  0
 30 35  1  1  0  0  0
 31 33  1  0  0  0  0
 31 32  1  6  0  0  0
 33 34  1  6  0  0  0
 35 36  1  0  0  0  0
 35 39  1  0  0  0  0
 36 37  2  0  0  0  0
 37 38  1  0  0  0  0
 38 39  2  0  0  0  0
 38 43  1  0  0  0  0
 39 40  1  0  0  0  0
 40 41  2  0  0  0  0
 41 42  1  0  0  0  0
 42 43  2  0  0  0  0
 43 44  1  0  0  0  0
 45 46  2  0  0  0  0
 45 52  1  0  0  0  0
 46 47  1  0  0  0  0
 47 48  2  0  0  0  0
 47 49  1  0  0  0  0
 49 50  1  0  0  0  0
 50 51  2  0  0  0  0
 50 52  1  0  0  0  0
 52 53  2  0  0  0  0
M  END
