
 OpenBabel10141418013D

 29 31  0  0  0  0  0  0  0  0999 V2000
   -2.6139   -0.4986    0.9056 C   0  0  0  0  0  0  0  0  0  0  0  0
   -1.9526   -1.0067    2.0129 C   0  0  0  0  0  0  0  0  0  0  0  0
    5.6696   -0.9364    1.7345 C   0  0  0  0  0  0  0  0  0  0  0  0
   -1.9545    0.4152    0.0898 C   0  0  0  0  0  0  0  0  0  0  0  0
    4.3441   -0.4938    1.6615 C   0  0  0  0  0  0  0  0  0  0  0  0
    6.3617   -0.8507    2.9353 C   0  0  0  0  0  0  0  0  0  0  0  0
   -0.6318   -0.6217    2.2908 C   0  0  0  0  0  0  0  0  0  0  0  0
    1.7356    0.7941    4.0512 C   0  0  0  0  0  0  0  0  0  0  0  0
    2.5452    0.8372    5.1660 C   0  0  0  0  0  0  0  0  0  0  0  0
    0.7132    5.0356    0.9597 C   0  0  0  0  0  0  0  0  0  0  0  0
    1.5205    3.5092   -0.9078 C   0  0  0  0  0  0  0  0  0  0  0  0
    1.9043    4.6035    0.0982 C   0  0  3  0  0  0  0  0  0  0  0  0
    3.6693    0.0177    2.8001 C   0  0  0  0  0  0  0  0  0  0  0  0
   -0.6051    0.7717    0.3297 C   0  0  0  0  0  0  0  0  0  0  0  0
    5.7307   -0.3239    4.0724 C   0  0  0  0  0  0  0  0  0  0  0  0
    0.0973    0.2256    1.4322 C   0  0  0  0  0  0  0  0  0  0  0  0
    2.2910    0.4216    2.8254 C   0  0  0  0  0  0  0  0  0  0  0  0
    4.4010    0.0879    4.0185 C   0  0  0  0  0  0  0  0  0  0  0  0
   -0.0524    1.7502   -0.6616 C   0  0  0  0  0  0  0  0  0  0  0  0
    6.4782   -0.2068    5.3772 C   0  0  0  0  0  0  0  0  0  0  0  0
    7.7692   -0.6564    5.2855 F   0  0  0  0  0  0  0  0  0  0  0  0
    6.5926    1.0751    5.8290 F   0  0  0  0  0  0  0  0  0  0  0  0
    5.9346   -0.9322    6.3962 F   0  0  0  0  0  0  0  0  0  0  0  0
    3.8476    0.5135    5.1575 N   0  0  0  0  0  0  0  0  0  0  0  0
    1.4917    0.4173    1.6441 N   0  0  0  0  0  0  0  0  0  0  0  0
    1.1354    6.0809    1.8401 O   0  0  0  0  0  0  0  0  0  0  0  0
    2.9633    4.1616    0.9565 O   0  0  0  0  0  0  0  0  0  0  0  0
   -0.6280    2.0531   -1.6793 O   0  0  0  0  0  0  0  0  0  0  0  0
    1.0939    2.3226   -0.2051 O   0  0  0  0  0  0  0  0  0  0  0  0
  2  1  2  0  0  0  0
  4  1  1  0  0  0  0
  5  3  2  0  0  0  0
  6  3  1  0  0  0  0
  7  2  1  0  0  0  0
  9  8  2  0  0  0  0
 12 10  1  0  0  0  0
 12 11  1  0  0  0  0
 13  5  1  0  0  0  0
 14  4  2  0  0  0  0
 15  6  2  0  0  0  0
 16  7  2  0  0  0  0
 16 14  1  0  0  0  0
 17  8  1  0  0  0  0
 17 13  2  0  0  0  0
 18 13  1  0  0  0  0
 18 15  1  0  0  0  0
 19 14  1  0  0  0  0
 20 15  1  0  0  0  0
 21 20  1  0  0  0  0
 22 20  1  0  0  0  0
 23 20  1  0  0  0  0
 24  9  1  0  0  0  0
 24 18  2  0  0  0  0
 25 16  1  0  0  0  0
 25 17  1  0  0  0  0
 26 10  1  0  0  0  0
 27 12  1  0  0  0  0
 28 19  2  0  0  0  0
 29 11  1  0  0  0  0
 29 19  1  0  0  0  0
M  END
