322
 OpenBabel10141417533D

 17 18  0  0  1  0  0  0  0  0999 V2000
    0.4334    1.9112    0.1826 F   0  0  0  0  0  0  0  0  0  0  0  0
    4.9457    3.7746    0.1923 O   0  0  0  0  0  0  0  0  0  0  0  0
    5.9661    5.1201   -2.9823 O   0  0  0  0  0  0  0  0  0  0  0  0
    3.1177    5.9155   -0.5796 O   0  0  0  0  0  0  0  0  0  0  0  0
    5.2816   -0.1799   -0.8793 O   0  0  0  0  0  0  0  0  0  0  0  0
    0.8758   -0.8126   -0.0416 O   0  0  0  0  0  0  0  0  0  0  0  0
    3.9852    1.6995   -0.4866 N   0  0  0  0  0  0  0  0  0  0  0  0
    3.0730   -0.4603   -0.5109 N   0  0  0  0  0  0  0  0  0  0  0  0
    5.1512    4.3878   -2.0791 C   0  0  1  0  0  0  0  0  0  0  0  0
    5.1661    2.5603   -0.5493 C   0  0  1  0  0  0  0  0  0  0  0  0
    5.5864    2.9459   -1.9661 C   0  0  0  0  0  0  0  0  0  0  0  0
    5.3271    4.8776   -0.6496 C   0  0  1  0  0  0  0  0  0  0  0  0
    4.5084    6.1285   -0.3321 C   0  0  0  0  0  0  0  0  0  0  0  0
    4.1883    0.3299   -0.6429 C   0  0  0  0  0  0  0  0  0  0  0  0
    2.7230    2.2162   -0.2413 C   0  0  0  0  0  0  0  0  0  0  0  0
    1.6583    1.4285   -0.0939 C   0  0  0  0  0  0  0  0  0  0  0  0
    1.8052   -0.0351   -0.2057 C   0  0  0  0  0  0  0  0  0  0  0  0
  1 16  1  0  0  0  0
  2 10  1  0  0  0  0
  2 12  1  0  0  0  0
  4 13  1  0  0  0  0
  5 14  2  0  0  0  0
  6 17  2  0  0  0  0
  7 14  1  0  0  0  0
  7 15  1  0  0  0  0
  8 14  1  0  0  0  0
  8 17  1  0  0  0  0
  9 11  1  0  0  0  0
  9 12  1  0  0  0  0
  9  3  1  6  0  0  0
 10  7  1  6  0  0  0
 10 11  1  0  0  0  0
 12 13  1  1  0  0  0
 15 16  2  0  0  0  0
 16 17  1  0  0  0  0
M  END
