301
 OpenBabel10141417493D

 30 33  0  0  1  0  0  0  0  0999 V2000
    0.1802   -1.4346    4.6004 Cl  0  0  0  0  0  0  0  0  0  0  0  0
   -1.4486   -1.4538    0.9094 S   0  0  0  0  0  0  0  0  0  0  0  0
   -4.5170   -0.5584    6.3703 F   0  0  0  0  0  0  0  0  0  0  0  0
   -1.7665    2.7094    0.2757 O   0  0  0  0  0  0  0  0  0  0  0  0
   -0.1731   -0.3266   -2.7706 O   0  0  0  0  0  0  0  0  0  0  0  0
   -2.2456   -0.9622   -3.3941 O   0  0  0  0  0  0  0  0  0  0  0  0
    0.5189    2.5345    3.8184 O   0  0  0  0  0  0  0  0  0  0  0  0
   -1.9654    2.2344    7.1686 O   0  0  0  0  0  0  0  0  0  0  0  0
   -0.8304    0.6937   -0.4805 N   0  0  0  0  0  0  0  0  0  0  0  0
   -0.8655    1.0229    2.8301 N   0  0  0  0  0  0  0  0  0  0  0  0
   -2.3914    0.9532    6.9772 N   0  0  0  0  0  0  0  0  0  0  0  0
   -0.2211   -0.1497    0.5667 C   0  0  1  0  0  0  0  0  0  0  0  0
   -2.7044   -0.8729   -0.3197 C   0  0  0  0  0  0  0  0  0  0  0  0
   -1.9748    0.1350   -1.2362 C   0  0  2  0  0  0  0  0  0  0  0  0
   -0.1847    1.0979    1.4948 C   0  0  1  0  0  0  0  0  0  0  0  0
   -1.0200    1.7497    0.3722 C   0  0  0  0  0  0  0  0  0  0  0  0
   -3.3523   -2.1091   -0.9651 C   0  0  0  0  0  0  0  0  0  0  0  0
   -3.8306   -0.1396    0.4189 C   0  0  0  0  0  0  0  0  0  0  0  0
   -1.5058   -0.4519   -2.5662 C   0  0  0  0  0  0  0  0  0  0  0  0
   -0.4391    1.7697    3.9104 C   0  0  0  0  0  0  0  0  0  0  0  0
   -1.1940    1.6303    5.1530 C   0  0  0  0  0  0  0  0  0  0  0  0
   -1.9802    0.5691    5.7568 C   0  0  0  0  0  0  0  0  0  0  0  0
   -1.2740    2.6537    6.0872 C   0  0  0  0  0  0  0  0  0  0  0  0
   -2.3857   -0.7704    5.2937 C   0  0  0  0  0  0  0  0  0  0  0  0
   -0.8169    4.0589    6.1499 C   0  0  0  0  0  0  0  0  0  0  0  0
   -1.5368   -1.6540    4.6196 C   0  0  0  0  0  0  0  0  0  0  0  0
   -3.6796   -1.2523    5.5840 C   0  0  0  0  0  0  0  0  0  0  0  0
   -2.0298   -2.8489    4.0613 C   0  0  0  0  0  0  0  0  0  0  0  0
   -4.1481   -2.4810    5.1076 C   0  0  0  0  0  0  0  0  0  0  0  0
   -3.3430   -3.2533    4.2851 C   0  0  0  0  0  0  0  0  0  0  0  0
  1 26  1  0  0  0  0
  2 13  1  0  0  0  0
  3 27  1  0  0  0  0
  4 16  2  0  0  0  0
  5 19  1  0  0  0  0
  6 19  2  0  0  0  0
  7 20  2  0  0  0  0
  8 11  1  0  0  0  0
  8 23  1  0  0  0  0
  9 12  1  0  0  0  0
  9 14  1  0  0  0  0
  9 16  1  0  0  0  0
 10 20  1  0  0  0  0
 11 22  2  0  0  0  0
 12  2  1  1  0  0  0
 12 15  1  0  0  0  0
 13 14  1  0  0  0  0
 13 17  1  0  0  0  0
 13 18  1  0  0  0  0
 14 19  1  6  0  0  0
 15 16  1  0  0  0  0
 15 10  1  1  0  0  0
 20 21  1  0  0  0  0
 21 22  1  0  0  0  0
 21 23  2  0  0  0  0
 22 24  1  0  0  0  0
 23 25  1  0  0  0  0
 24 26  1  0  0  0  0
 24 27  2  0  0  0  0
 26 28  2  0  0  0  0
 27 29  1  0  0  0  0
 28 30  1  0  0  0  0
 29 30  2  0  0  0  0
M  END
