1073
 OpenBabel10141417523D

 24 26  0  0  1  0  0  0  0  0999 V2000
    1.6048   -0.2103    0.8520 P   0  0  0  0  0  0  0  0  0  0  0  0
    4.7442    2.2774    2.9503 F   0  0  0  0  0  0  0  0  0  0  0  0
    0.3109    4.0914    3.1178 O   0  0  0  0  0  0  0  0  0  0  0  0
    0.7398    6.4325    0.3484 O   0  0  0  0  0  0  0  0  0  0  0  0
   -0.1779    3.6419   -0.4389 O   0  0  0  0  0  0  0  0  0  0  0  0
    0.7204    1.1237    0.9476 O   0  0  0  0  0  0  0  0  0  0  0  0
    3.1292    0.2578    0.8497 O   0  0  0  0  0  0  0  0  0  0  0  0
    1.3998   -0.7242   -0.6439 O   0  0  0  0  0  0  0  0  0  0  0  0
    1.3169   -1.2612    1.8580 O   0  0  0  0  0  0  0  0  0  0  0  0
    1.8057    5.9410    2.9758 N   0  0  0  0  0  0  0  0  0  0  0  0
    3.3621    7.4172    3.6076 N   0  0  0  0  0  0  0  0  0  0  0  0
    3.1857    3.9376    2.8774 N   0  0  0  0  0  0  0  0  0  0  0  0
    5.4805    4.3733    3.4941 N   0  0  0  0  0  0  0  0  0  0  0  0
    6.2883    6.4926    4.0810 N   0  0  0  0  0  0  0  0  0  0  0  0
    0.1276    5.4313    1.1480 C   0  0  1  0  0  0  0  0  0  0  0  0
    0.5269    4.0294    0.7365 C   0  0  1  0  0  0  0  0  0  0  0  0
    0.4786    5.4501    2.6372 C   0  0  1  0  0  0  0  0  0  0  0  0
    0.1319    3.2276    1.9741 C   0  0  1  0  0  0  0  0  0  0  0  0
    0.9257    1.9278    2.0987 C   0  0  0  0  0  0  0  0  0  0  0  0
    2.9752    5.2378    3.0928 C   0  0  0  0  0  0  0  0  0  0  0  0
    2.0932    7.2473    3.2933 C   0  0  0  0  0  0  0  0  0  0  0  0
    3.9217    6.1628    3.4930 C   0  0  0  0  0  0  0  0  0  0  0  0
    5.2260    5.6798    3.6982 C   0  0  0  0  0  0  0  0  0  0  0  0
    4.4605    3.5779    3.1152 C   0  0  0  0  0  0  0  0  0  0  0  0
  1  6  1  0  0  0  0
  1  7  1  0  0  0  0
  1  8  1  0  0  0  0
  1  9  2  0  0  0  0
  2 24  1  0  0  0  0
  3 17  1  0  0  0  0
  3 18  1  0  0  0  0
  6 19  1  0  0  0  0
 10 20  1  0  0  0  0
 10 21  1  0  0  0  0
 11 21  2  0  0  0  0
 11 22  1  0  0  0  0
 12 20  2  0  0  0  0
 12 24  1  0  0  0  0
 13 23  1  0  0  0  0
 13 24  2  0  0  0  0
 14 23  1  0  0  0  0
 15  4  1  6  0  0  0
 15 16  1  0  0  0  0
 15 17  1  0  0  0  0
 16 18  1  0  0  0  0
 16  5  1  6  0  0  0
 17 10  1  6  0  0  0
 18 19  1  1  0  0  0
 20 22  1  0  0  0  0
 22 23  2  0  0  0  0
M  END
