1567
 OpenBabel10141418083D

 21 23  0  0  0  0  0  0  0  0999 V2000
    0.9349   -0.0144   -0.5557 Cl  0  0  0  0  0  0  0  0  0  0  0  0
    4.1054    1.6491    2.7447 F   0  0  0  0  0  0  0  0  0  0  0  0
    8.9689    0.6291   -0.3229 O   0  0  0  0  0  0  0  0  0  0  0  0
    6.8591   -0.1601    0.1862 N   0  0  0  0  0  0  0  0  0  0  0  0
    6.4749    2.8346   -0.2896 N   0  0  0  0  0  0  0  0  0  0  0  0
    4.7273    1.1360    0.0335 C   0  0  0  0  0  0  0  0  0  0  0  0
    5.4360   -0.0822    0.0620 C   0  0  0  0  0  0  0  0  0  0  0  0
    5.3886    2.4484    0.2915 C   0  0  0  0  0  0  0  0  0  0  0  0
    7.1335    1.8990   -1.1961 C   0  0  0  0  0  0  0  0  0  0  0  0
    4.7653    3.3979    1.2636 C   0  0  0  0  0  0  0  0  0  0  0  0
    7.7429    0.7606   -0.3890 C   0  0  0  0  0  0  0  0  0  0  0  0
    3.3362    1.1527   -0.1806 C   0  0  0  0  0  0  0  0  0  0  0  0
    4.6916   -1.2732   -0.0436 C   0  0  0  0  0  0  0  0  0  0  0  0
    7.4532   -1.3376    0.8050 C   0  0  0  0  0  0  0  0  0  0  0  0
    2.6360   -0.0408   -0.3088 C   0  0  0  0  0  0  0  0  0  0  0  0
    3.3052   -1.2544   -0.2287 C   0  0  0  0  0  0  0  0  0  0  0  0
    4.1505    2.9536    2.4367 C   0  0  0  0  0  0  0  0  0  0  0  0
    4.8333    4.7740    1.0076 C   0  0  0  0  0  0  0  0  0  0  0  0
    3.5815    3.8593    3.3298 C   0  0  0  0  0  0  0  0  0  0  0  0
    4.2640    5.6840    1.9021 C   0  0  0  0  0  0  0  0  0  0  0  0
    3.6345    5.2267    3.0604 C   0  0  0  0  0  0  0  0  0  0  0  0
  1 15  1  0  0  0  0
  2 17  1  0  0  0  0
  3 11  2  0  0  0  0
  4  7  1  0  0  0  0
  4 11  1  0  0  0  0
  4 14  1  0  0  0  0
  5  8  2  0  0  0  0
  5  9  1  0  0  0  0
  6  7  2  0  0  0  0
  6  8  1  0  0  0  0
  6 12  1  0  0  0  0
  7 13  1  0  0  0  0
  8 10  1  0  0  0  0
  9 11  1  0  0  0  0
 10 17  1  0  0  0  0
 10 18  2  0  0  0  0
 12 15  2  0  0  0  0
 13 16  2  0  0  0  0
 15 16  1  0  0  0  0
 17 19  2  0  0  0  0
 18 20  1  0  0  0  0
 19 21  1  0  0  0  0
 20 21  2  0  0  0  0
M  END
