687
 OpenBabel10141417503D

 27 30  0  0  1  0  0  0  0  0999 V2000
    0.6551   -0.1920   -1.6915 F   0  0  0  0  0  0  0  0  0  0  0  0
   -1.1728   -3.5597    0.2032 O   0  0  0  0  0  0  0  0  0  0  0  0
    3.6015   -1.4198   -0.0084 O   0  0  0  0  0  0  0  0  0  0  0  0
    0.1235   -4.7648    3.2603 O   0  0  0  0  0  0  0  0  0  0  0  0
    0.6947   -7.0000    1.7350 O   0  0  0  0  0  0  0  0  0  0  0  0
    1.1377    3.1708   -4.6656 O   0  0  0  0  0  0  0  0  0  0  0  0
    0.7922   -2.3432    1.0384 C   0  0  1  0  0  0  0  0  0  0  0  0
    0.0444   -0.9932    0.9121 C   0  0  2  0  0  0  0  0  0  0  0  0
    0.9633    0.2016    0.6132 C   0  0  1  0  0  0  0  0  0  0  0  0
    1.6739   -0.0592   -0.7620 C   0  0  2  0  0  0  0  0  0  0  0  0
   -0.4130   -3.2836    1.3856 C   0  0  1  0  0  0  0  0  0  0  0  0
    1.5024   -2.6059   -0.3096 C   0  0  0  0  0  0  0  0  0  0  0  0
    2.5276    1.1865   -1.2217 C   0  0  2  0  0  0  0  0  0  0  0  0
    2.4049   -1.4362   -0.7782 C   0  0  2  0  0  0  0  0  0  0  0  0
   -0.8331   -0.9544    2.1564 C   0  0  0  0  0  0  0  0  0  0  0  0
   -1.2869   -2.4160    2.3435 C   0  0  0  0  0  0  0  0  0  0  0  0
    0.1541    1.5171    0.6083 C   0  0  0  0  0  0  0  0  0  0  0  0
    1.8235   -2.3576    2.1978 C   0  0  0  0  0  0  0  0  0  0  0  0
    1.5647    2.3872   -1.2210 C   0  0  0  0  0  0  0  0  0  0  0  0
    0.9595    2.7203    0.1185 C   0  0  0  0  0  0  0  0  0  0  0  0
    3.1572    1.0197   -2.6361 C   0  0  0  0  0  0  0  0  0  0  0  0
    3.7171    1.4903   -0.2746 C   0  0  0  0  0  0  0  0  0  0  0  0
   -0.0146   -4.6341    2.0400 C   0  0  0  0  0  0  0  0  0  0  0  0
    2.1811    1.1958   -3.7878 C   0  0  0  0  0  0  0  0  0  0  0  0
    1.1437    3.0242   -2.3272 C   0  0  0  0  0  0  0  0  0  0  0  0
    1.4924    2.5338   -3.6826 C   0  0  0  0  0  0  0  0  0  0  0  0
    0.2949   -5.7978    1.0924 C   0  0  0  0  0  0  0  0  0  0  0  0
  4 23  2  0  0  0  0
  5 27  1  0  0  0  0
  6 26  2  0  0  0  0
  7  8  1  0  0  0  0
  7 11  1  0  0  0  0
  7 12  1  0  0  0  0
  7 18  1  1  0  0  0
  8  9  1  0  0  0  0
  8 15  1  1  0  0  0
  9 10  1  0  0  0  0
  9 17  1  6  0  0  0
 10  1  1  6  0  0  0
 10 13  1  0  0  0  0
 10 14  1  0  0  0  0
 11 16  1  0  0  0  0
 11 23  1  1  0  0  0
 11  2  1  0  0  0  0
 12 14  1  0  0  0  0
 13 19  1  0  0  0  0
 13 21  1  0  0  0  0
 13 22  1  1  0  0  0
 14  3  1  1  0  0  0
 15 16  1  0  0  0  0
 17 20  1  0  0  0  0
 19 20  1  0  0  0  0
 19 25  2  0  0  0  0
 21 24  1  0  0  0  0
 23 27  1  0  0  0  0
 24 26  1  0  0  0  0
 25 26  1  0  0  0  0
M  END
