1205
 OpenBabel10141417523D

 22 24  0  0  0  0  0  0  0  0999 V2000
    0.5570    0.6916    0.2952 F   0  0  0  0  0  0  0  0  0  0  0  0
    3.5520   -3.0439    1.3340 O   0  0  0  0  0  0  0  0  0  0  0  0
   10.3835   -1.2694   -0.3983 O   0  0  0  0  0  0  0  0  0  0  0  0
    9.0136   -2.9146   -1.2155 O   0  0  0  0  0  0  0  0  0  0  0  0
    6.0399   -0.0571   -0.1051 N   0  0  0  0  0  0  0  0  0  0  0  0
    5.3079   -2.9559   -0.1386 N   0  0  0  0  0  0  0  0  0  0  0  0
    8.2219    0.3966    0.0496 N   0  0  0  0  0  0  0  0  0  0  0  0
    6.7099   -1.1453   -0.6179 C   0  0  0  0  0  0  0  0  0  0  0  0
    5.9932   -2.2851   -1.2145 C   0  0  0  0  0  0  0  0  0  0  0  0
    4.6350    0.0935    0.0138 C   0  0  0  0  0  0  0  0  0  0  0  0
    3.7764   -1.0123    0.2060 C   0  0  0  0  0  0  0  0  0  0  0  0
    8.0610   -0.8841   -0.4471 C   0  0  0  0  0  0  0  0  0  0  0  0
    4.2080   -2.4149    0.5050 C   0  0  0  0  0  0  0  0  0  0  0  0
    7.0070    0.8623    0.2282 C   0  0  0  0  0  0  0  0  0  0  0  0
    4.0952    1.3933   -0.0575 C   0  0  0  0  0  0  0  0  0  0  0  0
    5.7990   -4.2724    0.2376 C   0  0  0  0  0  0  0  0  0  0  0  0
    2.3916   -0.7875    0.3014 C   0  0  0  0  0  0  0  0  0  0  0  0
    2.7166    1.5894    0.0306 C   0  0  0  0  0  0  0  0  0  0  0  0
    9.1708   -1.7947   -0.7372 C   0  0  0  0  0  0  0  0  0  0  0  0
    1.8785    0.4984    0.2044 C   0  0  0  0  0  0  0  0  0  0  0  0
   11.5094   -2.1314   -0.5997 C   0  0  0  0  0  0  0  0  0  0  0  0
   11.9940   -2.0353   -2.0338 C   0  0  0  0  0  0  0  0  0  0  0  0
  1 20  1  0  0  0  0
  2 13  2  0  0  0  0
  3 19  1  0  0  0  0
  3 21  1  0  0  0  0
  4 19  2  0  0  0  0
  5  8  1  0  0  0  0
  5 10  1  0  0  0  0
  5 14  1  0  0  0  0
  6  9  1  0  0  0  0
  6 13  1  0  0  0  0
  6 16  1  0  0  0  0
  7 12  1  0  0  0  0
  7 14  2  0  0  0  0
  8  9  1  0  0  0  0
  8 12  2  0  0  0  0
 10 11  2  0  0  0  0
 10 15  1  0  0  0  0
 11 13  1  0  0  0  0
 11 17  1  0  0  0  0
 12 19  1  0  0  0  0
 15 18  2  0  0  0  0
 17 20  2  0  0  0  0
 18 20  1  0  0  0  0
 21 22  1  0  0  0  0
M  END
