663
 OpenBabel10141417513D

 35 38  0  0  1  0  0  0  0  0999 V2000
    6.2470   -1.9850    5.5705 F   0  0  0  0  0  0  0  0  0  0  0  0
    9.6858   -2.5429    4.6153 F   0  0  0  0  0  0  0  0  0  0  0  0
    3.7681    3.1009    6.1691 O   0  0  0  0  0  0  0  0  0  0  0  0
    3.9160   -2.2120    4.1415 O   0  0  0  0  0  0  0  0  0  0  0  0
    4.3543    0.2483    8.0113 O   0  0  0  0  0  0  0  0  0  0  0  0
    3.0174    1.7919    9.8702 O   0  0  0  0  0  0  0  0  0  0  0  0
    8.0360   -2.2372   -0.7352 O   0  0  0  0  0  0  0  0  0  0  0  0
    4.5185    1.9678   11.5695 O   0  0  0  0  0  0  0  0  0  0  0  0
    5.0502    1.2099    5.2534 C   0  0  1  0  0  0  0  0  0  0  0  0
    6.5056    0.7859    5.5295 C   0  0  2  0  0  0  0  0  0  0  0  0
    7.1142   -0.1220    4.4483 C   0  0  1  0  0  0  0  0  0  0  0  0
    6.2415   -1.4103    4.3090 C   0  0  1  0  0  0  0  0  0  0  0  0
    4.7797    2.1481    6.4918 C   0  0  1  0  0  0  0  0  0  0  0  0
    7.1926    2.1144    5.8245 C   0  0  0  0  0  0  0  0  0  0  0  0
    4.1823   -0.0480    5.0911 C   0  0  0  0  0  0  0  0  0  0  0  0
    6.1745    2.8434    6.7340 C   0  0  1  0  0  0  0  0  0  0  0  0
    4.7464   -1.0456    4.0575 C   0  0  2  0  0  0  0  0  0  0  0  0
    6.8834   -2.4828    3.3103 C   0  0  1  0  0  0  0  0  0  0  0  0
    8.5605   -0.4948    4.8291 C   0  0  0  0  0  0  0  0  0  0  0  0
    4.8944    2.0309    3.9325 C   0  0  0  0  0  0  0  0  0  0  0  0
    9.2090   -1.5008    3.8811 C   0  0  1  0  0  0  0  0  0  0  0  0
    8.2612   -1.9988    2.8238 C   0  0  0  0  0  0  0  0  0  0  0  0
    4.3453    1.4666    7.8356 C   0  0  0  0  0  0  0  0  0  0  0  0
    6.2125    4.3542    6.5325 C   0  0  0  0  0  0  0  0  0  0  0  0
    7.0736   -3.8269    4.0613 C   0  0  0  0  0  0  0  0  0  0  0  0
    5.9987   -2.8372    2.1140 C   0  0  0  0  0  0  0  0  0  0  0  0
    8.6174   -1.9314    1.5273 C   0  0  0  0  0  0  0  0  0  0  0  0
    3.9648    2.4042    8.9835 C   0  0  0  0  0  0  0  0  0  0  0  0
    6.3558   -2.7720    0.8255 C   0  0  0  0  0  0  0  0  0  0  0  0
    7.7001   -2.3158    0.4373 C   0  0  0  0  0  0  0  0  0  0  0  0
    3.4177    1.6484   11.1601 C   0  0  0  0  0  0  0  0  0  0  0  0
    2.3007    1.0986   12.0636 C   0  0  0  0  0  0  0  0  0  0  0  0
    2.8575    0.9736   13.4926 C   0  0  0  0  0  0  0  0  0  0  0  0
    1.1097    2.0649   12.0736 C   0  0  0  0  0  0  0  0  0  0  0  0
    1.8438   -0.2806   11.5781 C   0  0  0  0  0  0  0  0  0  0  0  0
  5 23  2  0  0  0  0
  6 28  1  0  0  0  0
  6 31  1  0  0  0  0
  7 30  2  0  0  0  0
  8 31  2  0  0  0  0
  9 10  1  0  0  0  0
  9 13  1  0  0  0  0
  9 15  1  0  0  0  0
  9 20  1  1  0  0  0
 10 11  1  0  0  0  0
 10 14  1  1  0  0  0
 11 12  1  0  0  0  0
 11 19  1  6  0  0  0
 12 17  1  0  0  0  0
 12 18  1  0  0  0  0
 12  1  1  6  0  0  0
 13 16  1  0  0  0  0
 13 23  1  1  0  0  0
 13  3  1  0  0  0  0
 14 16  1  0  0  0  0
 15 17  1  0  0  0  0
 16 24  1  6  0  0  0
 17  4  1  1  0  0  0
 18 22  1  0  0  0  0
 18 26  1  0  0  0  0
 18 25  1  1  0  0  0
 19 21  1  0  0  0  0
 21 22  1  0  0  0  0
 21  2  1  6  0  0  0
 22 27  2  0  0  0  0
 23 28  1  0  0  0  0
 26 29  2  0  0  0  0
 27 30  1  0  0  0  0
 29 30  1  0  0  0  0
 31 32  1  0  0  0  0
 32 33  1  0  0  0  0
 32 34  1  0  0  0  0
 32 35  1  0  0  0  0
M  END
