4841
 OpenBabel10141417523D

 30 33  0  0  0  0  0  0  0  0999 V2000
    6.2624    2.7012   -6.6592 F   0  0  0  0  0  0  0  0  0  0  0  0
   12.4991   -3.3996   -3.4090 F   0  0  0  0  0  0  0  0  0  0  0  0
    7.8254    0.3175   -0.9169 N   0  0  0  0  0  0  0  0  0  0  0  0
    8.4853    1.6659    1.7228 N   0  0  0  0  0  0  0  0  0  0  0  0
    7.0571    1.4743   -0.3884 C   0  0  0  0  0  0  0  0  0  0  0  0
    8.3737   -0.3926    0.2540 C   0  0  0  0  0  0  0  0  0  0  0  0
    8.8134    0.7063   -1.9673 C   0  0  0  0  0  0  0  0  0  0  0  0
    7.7879    2.3794    0.6361 C   0  0  0  0  0  0  0  0  0  0  0  0
    9.1974    0.4743    1.2268 C   0  0  0  0  0  0  0  0  0  0  0  0
    9.4358    2.5391    2.4280 C   0  0  0  0  0  0  0  0  0  0  0  0
    8.1145    1.2531   -3.2381 C   0  0  0  0  0  0  0  0  0  0  0  0
    9.7967   -0.4208   -2.3615 C   0  0  0  0  0  0  0  0  0  0  0  0
    8.8044    3.7061    3.1290 C   0  0  0  0  0  0  0  0  0  0  0  0
    8.7486    2.2131   -4.0501 C   0  0  0  0  0  0  0  0  0  0  0  0
    9.3544   -1.6469   -2.8974 C   0  0  0  0  0  0  0  0  0  0  0  0
    6.8378    0.7950   -3.6294 C   0  0  0  0  0  0  0  0  0  0  0  0
   11.1860   -0.2354   -2.1993 C   0  0  0  0  0  0  0  0  0  0  0  0
    8.1181    2.7047   -5.2004 C   0  0  0  0  0  0  0  0  0  0  0  0
   10.2666   -2.6497   -3.2521 C   0  0  0  0  0  0  0  0  0  0  0  0
    6.2101    1.2881   -4.7753 C   0  0  0  0  0  0  0  0  0  0  0  0
   12.0950   -1.2415   -2.5491 C   0  0  0  0  0  0  0  0  0  0  0  0
    7.9193    3.6221    4.1276 C   0  0  0  0  0  0  0  0  0  0  0  0
    6.8578    2.2363   -5.5525 C   0  0  0  0  0  0  0  0  0  0  0  0
   11.6272   -2.4387   -3.0729 C   0  0  0  0  0  0  0  0  0  0  0  0
    7.3006    4.7981    4.7643 C   0  0  0  0  0  0  0  0  0  0  0  0
    7.0581    5.9716    4.0357 C   0  0  0  0  0  0  0  0  0  0  0  0
    6.8928    4.7402    6.1018 C   0  0  0  0  0  0  0  0  0  0  0  0
    6.4456    7.0757    4.6342 C   0  0  0  0  0  0  0  0  0  0  0  0
    6.2743    5.8474    6.7014 C   0  0  0  0  0  0  0  0  0  0  0  0
    6.0541    7.0116    5.9668 C   0  0  0  0  0  0  0  0  0  0  0  0
  1 23  1  0  0  0  0
  2 24  1  0  0  0  0
  3  5  1  0  0  0  0
  3  6  1  0  0  0  0
  3  7  1  0  0  0  0
  4  8  1  0  0  0  0
  4  9  1  0  0  0  0
  4 10  1  0  0  0  0
  5  8  1  0  0  0  0
  6  9  1  0  0  0  0
  7 11  1  0  0  0  0
  7 12  1  0  0  0  0
 10 13  1  0  0  0  0
 11 14  2  0  0  0  0
 11 16  1  0  0  0  0
 12 15  2  0  0  0  0
 12 17  1  0  0  0  0
 13 22  2  0  0  0  0
 14 18  1  0  0  0  0
 15 19  1  0  0  0  0
 16 20  2  0  0  0  0
 17 21  2  0  0  0  0
 18 23  2  0  0  0  0
 19 24  2  0  0  0  0
 20 23  1  0  0  0  0
 21 24  1  0  0  0  0
 22 25  1  0  0  0  0
 25 26  2  0  0  0  0
 25 27  1  0  0  0  0
 26 28  1  0  0  0  0
 27 29  2  0  0  0  0
 28 30  2  0  0  0  0
 29 30  1  0  0  0  0
M  END
