1185
 OpenBabel10141417503D

 24 27  0  0  1  0  0  0  0  0999 V2000
    0.7453   -0.7108   -1.0334 F   0  0  0  0  0  0  0  0  0  0  0  0
   -0.5887   -4.5824    1.3057 O   0  0  0  0  0  0  0  0  0  0  0  0
    3.4920   -1.3787    1.1902 O   0  0  0  0  0  0  0  0  0  0  0  0
    0.8731    2.2602   -4.6837 O   0  0  0  0  0  0  0  0  0  0  0  0
    0.6254   -2.4129    1.2282 C   0  0  1  0  0  0  0  0  0  0  0  0
    0.0232   -0.9567    1.2867 C   0  0  2  0  0  0  0  0  0  0  0  0
    1.0555    0.2015    1.0691 C   0  0  1  0  0  0  0  0  0  0  0  0
    1.7940   -0.2546   -0.2387 C   0  0  2  0  0  0  0  0  0  0  0  0
   -0.7004   -3.2047    0.9772 C   0  0  2  0  0  0  0  0  0  0  0  0
    1.7113   -2.6720    0.1600 C   0  0  0  0  0  0  0  0  0  0  0  0
    2.4659    0.7731   -1.1843 C   0  0  2  0  0  0  0  0  0  0  0  0
    2.6751   -1.4994    0.0293 C   0  0  2  0  0  0  0  0  0  0  0  0
   -1.0522   -1.1284    2.3611 C   0  0  0  0  0  0  0  0  0  0  0  0
   -1.7320   -2.4612    1.8878 C   0  0  0  0  0  0  0  0  0  0  0  0
    0.3775    1.5837    0.8556 C   0  0  0  0  0  0  0  0  0  0  0  0
    1.3067   -2.7733    2.5878 C   0  0  0  0  0  0  0  0  0  0  0  0
    1.6341    2.0619   -1.2229 C   0  0  0  0  0  0  0  0  0  0  0  0
    1.2776    2.6131    0.1366 C   0  0  0  0  0  0  0  0  0  0  0  0
    2.4993    0.1125   -2.6178 C   0  0  0  0  0  0  0  0  0  0  0  0
   -1.2110   -3.1872   -0.4891 C   0  0  0  0  0  0  0  0  0  0  0  0
    3.9129    1.1015   -0.7643 C   0  0  0  0  0  0  0  0  0  0  0  0
    1.1788    0.2922   -3.3651 C   0  0  0  0  0  0  0  0  0  0  0  0
    1.1162    2.5936   -2.3481 C   0  0  0  0  0  0  0  0  0  0  0  0
    1.0687    1.7719   -3.5990 C   0  0  0  0  0  0  0  0  0  0  0  0
  4 24  2  0  0  0  0
  5  6  1  0  0  0  0
  5  9  1  0  0  0  0
  5 10  1  0  0  0  0
  5 16  1  1  0  0  0
  6  7  1  0  0  0  0
  6 13  1  1  0  0  0
  7  8  1  0  0  0  0
  7 15  1  6  0  0  0
  8  1  1  6  0  0  0
  8 11  1  0  0  0  0
  8 12  1  0  0  0  0
  9  2  1  1  0  0  0
  9 14  1  0  0  0  0
  9 20  1  0  0  0  0
 10 12  1  0  0  0  0
 11 17  1  0  0  0  0
 11 19  1  0  0  0  0
 11 21  1  1  0  0  0
 12  3  1  1  0  0  0
 13 14  1  0  0  0  0
 15 18  1  0  0  0  0
 17 18  1  0  0  0  0
 17 23  2  0  0  0  0
 19 22  1  0  0  0  0
 22 24  1  0  0  0  0
 23 24  1  0  0  0  0
M  END
