
 OpenBabel10141418013D

 27 30  0  0  0  0  0  0  0  0999 V2000
   13.3735    1.5808   -3.2446 C   0  0  0  0  0  0  0  0  0  0  0  0
   11.3904   -2.8317    1.8143 C   0  0  0  0  0  0  0  0  0  0  0  0
   10.8241   -2.1924   -2.3934 C   0  0  0  0  0  0  0  0  0  0  0  0
   13.6637   -2.8902    4.3917 C   0  0  0  0  0  0  0  0  0  0  0  0
   13.4658   -2.9955    3.0705 C   0  0  0  0  0  0  0  0  0  0  0  0
   11.5615    0.6890   -1.7122 C   0  0  0  0  0  0  0  0  0  0  0  0
   12.3956   -0.7264    4.3839 C   0  0  0  0  0  0  0  0  0  0  0  0
   12.5402    0.8354    1.2761 C   0  0  0  0  0  0  0  0  0  0  0  0
   12.8700   -2.8571   -1.1525 C   0  0  0  0  0  0  0  0  0  0  0  0
   14.6254   -1.9714   -4.6127 C   0  0  0  0  0  0  0  0  0  0  0  0
   12.3647    0.4618   -3.0027 C   0  0  2  0  0  0  0  0  0  0  0  0
   13.0984   -1.7666    5.1532 C   0  0  0  0  0  0  0  0  0  0  0  0
   12.9520   -0.2325    0.2491 C   0  0  1  0  0  0  0  0  0  0  0  0
   11.8307   -0.5210   -0.7899 C   0  0  1  0  0  0  0  0  0  0  0  0
   12.1994   -0.8270    3.0553 C   0  0  0  0  0  0  0  0  0  0  0  0
   11.5601    0.3096    2.3092 C   0  0  1  0  0  0  0  0  0  0  0  0
   13.9505   -2.5051   -0.1340 C   0  0  1  0  0  0  0  0  0  0  0  0
   13.2042   -1.6189   -4.1904 C   0  0  0  0  0  0  0  0  0  0  0  0
   13.0336   -0.9176   -2.8404 C   0  0  2  0  0  0  0  0  0  0  0  0
   13.5060   -1.5069    0.9681 C   0  0  2  0  0  0  0  0  0  0  0  0
   12.6479   -2.0314    2.2055 C   0  0  2  0  0  0  0  0  0  0  0  0
   12.1515   -1.6608   -1.7950 C   0  0  2  0  0  0  0  0  0  0  0  0
   11.2531    1.3461    3.1428 F   0  0  0  0  0  0  0  0  0  0  0  0
   15.2571   -0.8782   -5.2509 O   0  0  0  0  0  0  0  0  0  0  0  0
   13.2245   -1.6902    6.3706 O   0  0  0  0  0  0  0  0  0  0  0  0
   14.4756   -3.7072    0.4078 O   0  0  0  0  0  0  0  0  0  0  0  0
   12.2610   -1.8239   -4.9563 O   0  0  0  0  0  0  0  0  0  0  0  0
  5  4  2  0  0  0  0
 11  6  1  0  0  0  0
 11  1  1  1  0  0  0
 12  4  1  0  0  0  0
 12  7  1  0  0  0  0
 13  8  1  6  0  0  0
 14  6  1  1  0  0  0
 14 13  1  0  0  0  0
 15  7  2  0  0  0  0
 16  8  1  0  0  0  0
 16 15  1  0  0  0  0
 16 23  1  1  0  0  0
 17  9  1  0  0  0  0
 17 26  1  1  0  0  0
 18 10  1  0  0  0  0
 19 11  1  0  0  0  0
 19 18  1  6  0  0  0
 20 13  1  6  0  0  0
 20 17  1  0  0  0  0
 21  5  1  0  0  0  0
 21 15  1  0  0  0  0
 21 20  1  0  0  0  0
 21  2  1  6  0  0  0
 22  9  1  0  0  0  0
 22 14  1  0  0  0  0
 22 19  1  0  0  0  0
 22  3  1  6  0  0  0
 24 10  1  0  0  0  0
 25 12  2  0  0  0  0
 27 18  2  0  0  0  0
M  END
