544
 OpenBabel10141418363D

  9  9  0  0  0  0  0  0  0  0999 V2000
    0.9785    0.0383    0.1290 F   0  0  0  0  0  0  0  0  0  0  0  0
    2.4699    2.3667   -0.1033 O   0  0  0  0  0  0  0  0  0  0  0  0
    6.3225   -0.0290   -0.4564 O   0  0  0  0  0  0  0  0  0  0  0  0
    4.4075    1.1739   -0.2058 N   0  0  0  0  0  0  0  0  0  0  0  0
    4.3576   -1.1453   -0.2191 N   0  0  0  0  0  0  0  0  0  0  0  0
    3.0418    1.2832   -0.1041 C   0  0  0  0  0  0  0  0  0  0  0  0
    5.1066    0.0009   -0.3011 C   0  0  0  0  0  0  0  0  0  0  0  0
    2.3160   -0.0040   -0.0071 C   0  0  0  0  0  0  0  0  0  0  0  0
    2.9958   -1.1491   -0.0686 C   0  0  0  0  0  0  0  0  0  0  0  0
  1  8  1  0  0  0  0
  2  6  2  0  0  0  0
  3  7  2  0  0  0  0
  4  6  1  0  0  0  0
  4  7  1  0  0  0  0
  5  7  1  0  0  0  0
  5  9  1  0  0  0  0
  6  8  1  0  0  0  0
  8  9  2  0  0  0  0
M  END
