324
 OpenBabel10141417473D

 27 30  0  0  1  0  0  0  0  0999 V2000
    4.9091   -0.4811   -6.7049 F   0  0  0  0  0  0  0  0  0  0  0  0
    1.7327   -5.2566   -5.4499 O   0  0  0  0  0  0  0  0  0  0  0  0
    2.3456    0.3309   -6.0092 O   0  0  0  0  0  0  0  0  0  0  0  0
    3.8236   -4.5514   -8.2478 O   0  0  0  0  0  0  0  0  0  0  0  0
    6.8676    1.8537   -0.9503 O   0  0  0  0  0  0  0  0  0  0  0  0
    3.1810   -3.2562   -5.2952 C   0  0  1  0  0  0  0  0  0  0  0  0
    4.6947   -3.1177   -5.5299 C   0  0  2  0  0  0  0  0  0  0  0  0
    5.3163   -1.8763   -4.8731 C   0  0  1  0  0  0  0  0  0  0  0  0
    4.5946   -0.5760   -5.3618 C   0  0  1  0  0  0  0  0  0  0  0  0
    2.9013   -4.6334   -5.9764 C   0  0  1  0  0  0  0  0  0  0  0  0
    2.5099   -2.0270   -5.9187 C   0  0  0  0  0  0  0  0  0  0  0  0
    3.0315   -0.7101   -5.3065 C   0  0  2  0  0  0  0  0  0  0  0  0
    5.2425   -4.4904   -5.1481 C   0  0  0  0  0  0  0  0  0  0  0  0
    5.2048    0.7139   -4.6373 C   0  0  1  0  0  0  0  0  0  0  0  0
    4.1324   -5.4819   -5.5513 C   0  0  0  0  0  0  0  0  0  0  0  0
    6.8362   -1.8332   -5.1884 C   0  0  0  0  0  0  0  0  0  0  0  0
    7.4380   -0.4175   -5.2205 C   0  0  1  0  0  0  0  0  0  0  0  0
    2.7965   -3.3337   -3.7879 C   0  0  0  0  0  0  0  0  0  0  0  0
    6.6727    0.4317   -4.2243 C   0  0  0  0  0  0  0  0  0  0  0  0
    2.8208   -4.5793   -7.5310 C   0  0  0  0  0  0  0  0  0  0  0  0
    5.2263    1.9181   -5.6133 C   0  0  0  0  0  0  0  0  0  0  0  0
    4.4005    1.1857   -3.4236 C   0  0  0  0  0  0  0  0  0  0  0  0
    8.9597   -0.4849   -5.0524 C   0  0  0  0  0  0  0  0  0  0  0  0
    7.1929    0.8066   -3.0401 C   0  0  0  0  0  0  0  0  0  0  0  0
    4.9243    1.5371   -2.2412 C   0  0  0  0  0  0  0  0  0  0  0  0
    1.4477   -4.5355   -8.1557 C   0  0  0  0  0  0  0  0  0  0  0  0
    6.3747    1.4536   -1.9962 C   0  0  0  0  0  0  0  0  0  0  0  0
  4 20  2  0  0  0  0
  5 27  2  0  0  0  0
  6  7  1  0  0  0  0
  6 10  1  0  0  0  0
  6 11  1  0  0  0  0
  6 18  1  6  0  0  0
  7  8  1  0  0  0  0
  7 13  1  6  0  0  0
  8  9  1  0  0  0  0
  8 16  1  1  0  0  0
  9 12  1  0  0  0  0
  9 14  1  0  0  0  0
  9  1  1  1  0  0  0
 10 15  1  0  0  0  0
 10 20  1  6  0  0  0
 10  2  1  0  0  0  0
 11 12  1  0  0  0  0
 12  3  1  6  0  0  0
 13 15  1  0  0  0  0
 14 19  1  0  0  0  0
 14 22  1  0  0  0  0
 14 21  1  6  0  0  0
 16 17  1  0  0  0  0
 17 19  1  0  0  0  0
 17 23  1  1  0  0  0
 19 24  2  0  0  0  0
 20 26  1  0  0  0  0
 22 25  2  0  0  0  0
 24 27  1  0  0  0  0
 25 27  1  0  0  0  0
M  END
