
 OpenBabel10141418013D

 28 31  0  0  0  0  0  0  0  0999 V2000
   14.8413  -10.4025    8.2030 C   0  0  0  0  0  0  0  0  0  0  0  0
    8.3867   -4.6233    7.0321 C   0  0  0  0  0  0  0  0  0  0  0  0
   11.4598   -8.4088    9.7803 C   0  0  0  0  0  0  0  0  0  0  0  0
    8.6791   -8.2266    5.6790 C   0  0  0  0  0  0  0  0  0  0  0  0
    9.7930   -8.6808    6.6203 C   0  0  0  0  0  0  0  0  0  0  0  0
    9.4610   -5.0841    3.8417 C   0  0  0  0  0  0  0  0  0  0  0  0
    9.9125   -4.9906    5.1032 C   0  0  0  0  0  0  0  0  0  0  0  0
   12.7216   -9.4652    7.2366 C   0  0  0  0  0  0  0  0  0  0  0  0
    7.4420   -6.4019    4.6995 C   0  0  0  0  0  0  0  0  0  0  0  0
   12.2129   -6.1198    8.9816 C   0  0  0  0  0  0  0  0  0  0  0  0
   14.9368   -7.2182   11.2427 C   0  0  0  0  0  0  0  0  0  0  0  0
   13.9114   -9.4354    8.1771 C   0  0  0  0  0  0  0  0  0  0  0  0
    8.2660   -6.7609    5.7161 C   0  0  0  0  0  0  0  0  0  0  0  0
    8.2073   -5.8232    3.5327 C   0  0  0  0  0  0  0  0  0  0  0  0
   10.8878   -7.6271    6.6770 C   0  0  1  0  0  0  0  0  0  0  0  0
   12.2172   -8.0294    7.3360 C   0  0  1  0  0  0  0  0  0  0  0  0
   11.4701   -5.4413    7.7996 C   0  0  1  0  0  0  0  0  0  0  0  0
   14.2737   -8.3769   10.5193 C   0  0  0  0  0  0  0  0  0  0  0  0
    9.2427   -5.6845    6.2914 C   0  0  2  0  0  0  0  0  0  0  0  0
   12.4180   -7.6488    8.8232 C   0  0  2  0  0  0  0  0  0  0  0  0
   10.2922   -6.3215    7.2810 C   0  0  2  0  0  0  0  0  0  0  0  0
   13.8909   -8.1582    9.0267 C   0  0  2  0  0  0  0  0  0  0  0  0
    9.5723   -6.6733    8.4038 F   0  0  0  0  0  0  0  0  0  0  0  0
   16.3388   -7.4304   11.3172 O   0  0  0  0  0  0  0  0  0  0  0  0
    7.7753   -5.8933    2.3909 O   0  0  0  0  0  0  0  0  0  0  0  0
   11.0653   -4.1431    8.2256 O   0  0  0  0  0  0  0  0  0  0  0  0
   14.1041   -9.4446   11.1173 O   0  0  0  0  0  0  0  0  0  0  0  0
   14.7948   -7.2573    8.3852 O   0  0  0  0  0  0  0  0  0  0  0  0
  5  4  1  0  0  0  0
  7  6  2  0  0  0  0
 12  8  1  0  0  0  0
 12  1  2  0  0  0  0
 13  4  1  0  0  0  0
 13  9  2  0  0  0  0
 14  6  1  0  0  0  0
 14  9  1  0  0  0  0
 15  5  1  6  0  0  0
 16  8  1  1  0  0  0
 16 15  1  0  0  0  0
 17 10  1  0  0  0  0
 17 26  1  1  0  0  0
 18 11  1  0  0  0  0
 19  7  1  0  0  0  0
 19 13  1  0  0  0  0
 19  2  1  1  0  0  0
 20 10  1  0  0  0  0
 20 16  1  0  0  0  0
 20  3  1  1  0  0  0
 21 15  1  0  0  0  0
 21 17  1  0  0  0  0
 21 19  1  0  0  0  0
 21 23  1  6  0  0  0
 22 12  1  0  0  0  0
 22 20  1  0  0  0  0
 22 28  1  6  0  0  0
 22 18  1  0  0  0  0
 24 11  1  0  0  0  0
 25 14  2  0  0  0  0
 27 18  2  0  0  0  0
M  END
