846
 OpenBabel10141417483D

 31 35  0  0  1  0  0  0  0  0999 V2000
    3.9171   -1.5656    4.7693 F   0  0  0  0  0  0  0  0  0  0  0  0
    8.0955    1.2451    0.9793 O   0  0  0  0  0  0  0  0  0  0  0  0
    7.9292    0.1928   -1.1560 O   0  0  0  0  0  0  0  0  0  0  0  0
    7.9352   -3.3357    3.7709 O   0  0  0  0  0  0  0  0  0  0  0  0
    5.2627    1.2393   -0.9013 O   0  0  0  0  0  0  0  0  0  0  0  0
    3.9652    2.2895    1.5780 O   0  0  0  0  0  0  0  0  0  0  0  0
    4.9734   -5.7312    7.3313 O   0  0  0  0  0  0  0  0  0  0  0  0
    6.3393   -0.3852    2.0008 C   0  0  1  0  0  0  0  0  0  0  0  0
    5.3471   -1.2358    1.1388 C   0  0  2  0  0  0  0  0  0  0  0  0
    4.7847   -2.5045    1.7900 C   0  0  1  0  0  0  0  0  0  0  0  0
    6.8790    0.5258    0.8500 C   0  0  1  0  0  0  0  0  0  0  0  0
    5.8235   -3.3762    2.5454 C   0  0  2  0  0  0  0  0  0  0  0  0
    6.0818   -1.4674   -0.2422 C   0  0  0  0  0  0  0  0  0  0  0  0
    7.2903   -0.5500   -0.1431 C   0  0  1  0  0  0  0  0  0  0  0  0
    7.4031   -1.3053    2.6629 C   0  0  0  0  0  0  0  0  0  0  0  0
    6.8180   -2.5288    3.3886 C   0  0  2  0  0  0  0  0  0  0  0  0
    5.0818   -4.5147    3.3633 C   0  0  2  0  0  0  0  0  0  0  0  0
    3.4809   -2.2023    2.5801 C   0  0  0  0  0  0  0  0  0  0  0  0
    5.6983    0.3987    3.1555 C   0  0  0  0  0  0  0  0  0  0  0  0
    4.2180   -3.8500    4.4291 C   0  0  0  0  0  0  0  0  0  0  0  0
    3.4348   -2.6204    4.0450 C   0  0  1  0  0  0  0  0  0  0  0  0
    5.7713    1.4593    0.2060 C   0  0  0  0  0  0  0  0  0  0  0  0
    8.7071    1.1308   -0.3498 C   0  0  0  0  0  0  0  0  0  0  0  0
    6.0623   -5.5851    3.9485 C   0  0  0  0  0  0  0  0  0  0  0  0
    4.1485   -5.3333    2.4180 C   0  0  0  0  0  0  0  0  0  0  0  0
    6.4066   -5.4463    5.4246 C   0  0  0  0  0  0  0  0  0  0  0  0
    4.2133   -4.2105    5.7241 C   0  0  0  0  0  0  0  0  0  0  0  0
    5.2187    2.6262    1.0011 C   0  0  0  0  0  0  0  0  0  0  0  0
    8.7317    2.4906   -1.0369 C   0  0  0  0  0  0  0  0  0  0  0  0
   10.1350    0.6091   -0.1657 C   0  0  0  0  0  0  0  0  0  0  0  0
    5.1627   -5.2176    6.2393 C   0  0  0  0  0  0  0  0  0  0  0  0
  2 11  1  0  0  0  0
  2 23  1  0  0  0  0
  3 23  1  0  0  0  0
  5 22  2  0  0  0  0
  6 28  1  0  0  0  0
  7 31  2  0  0  0  0
  8  9  1  0  0  0  0
  8 11  1  0  0  0  0
  8 15  1  0  0  0  0
  8 19  1  6  0  0  0
  9 10  1  0  0  0  0
  9 13  1  6  0  0  0
 10 18  1  1  0  0  0
 11 14  1  0  0  0  0
 11 22  1  1  0  0  0
 12 10  1  6  0  0  0
 12 16  1  0  0  0  0
 12 17  1  0  0  0  0
 13 14  1  0  0  0  0
 14  3  1  6  0  0  0
 15 16  1  0  0  0  0
 16  4  1  6  0  0  0
 17 20  1  0  0  0  0
 17 24  1  0  0  0  0
 17 25  1  6  0  0  0
 18 21  1  0  0  0  0
 20 21  1  0  0  0  0
 20 27  2  0  0  0  0
 21  1  1  1  0  0  0
 22 28  1  0  0  0  0
 23 29  1  0  0  0  0
 23 30  1  0  0  0  0
 24 26  1  0  0  0  0
 26 31  1  0  0  0  0
 27 31  1  0  0  0  0
M  END
