712
 OpenBabel10141417563D

 18 19  0  0  1  0  0  0  0  0999 V2000
    0.7526   -0.0557    0.6705 F   0  0  0  0  0  0  0  0  0  0  0  0
    5.5319   -3.2478    1.9687 O   0  0  0  0  0  0  0  0  0  0  0  0
    7.0989   -2.2571    0.7248 O   0  0  0  0  0  0  0  0  0  0  0  0
    4.8443   -2.5358   -0.2044 C   0  0  3  0  0  0  0  0  0  0  0  0
    4.1017   -1.2171   -0.0952 C   0  0  0  0  0  0  0  0  0  0  0  0
    2.6518    1.2511    0.0416 C   0  0  0  0  0  0  0  0  0  0  0  0
    2.7457   -1.1964    0.2463 C   0  0  0  0  0  0  0  0  0  0  0  0
    4.7340    0.0047   -0.3480 C   0  0  0  0  0  0  0  0  0  0  0  0
    2.0463    0.0126    0.3168 C   0  0  0  0  0  0  0  0  0  0  0  0
    4.0197    1.2105   -0.2919 C   0  0  0  0  0  0  0  0  0  0  0  0
    5.4024   -2.7462   -1.6147 C   0  0  0  0  0  0  0  0  0  0  0  0
    1.9099    2.5389    0.0855 C   0  0  0  0  0  0  0  0  0  0  0  0
    5.9493   -2.6537    0.8321 C   0  0  0  0  0  0  0  0  0  0  0  0
    0.5458    2.6227   -0.2517 C   0  0  0  0  0  0  0  0  0  0  0  0
    2.5434    3.7423    0.4552 C   0  0  0  0  0  0  0  0  0  0  0  0
   -0.1514    3.8361   -0.2104 C   0  0  0  0  0  0  0  0  0  0  0  0
    1.8546    4.9609    0.4813 C   0  0  0  0  0  0  0  0  0  0  0  0
    0.5049    5.0064    0.1527 C   0  0  0  0  0  0  0  0  0  0  0  0
  1  9  1  0  0  0  0
  2 13  1  0  0  0  0
  3 13  2  0  0  0  0
  4  5  1  0  0  0  0
  4 11  1  0  0  0  0
  4 13  1  0  0  0  0
  5  7  2  0  0  0  0
  5  8  1  0  0  0  0
  6  9  2  0  0  0  0
  6 10  1  0  0  0  0
  6 12  1  0  0  0  0
  7  9  1  0  0  0  0
  8 10  2  0  0  0  0
 12 14  2  0  0  0  0
 12 15  1  0  0  0  0
 14 16  1  0  0  0  0
 15 17  2  0  0  0  0
 16 18  2  0  0  0  0
 17 18  1  0  0  0  0
M  END
