4842
 OpenBabel10141417523D

 35 39  0  0  1  0  0  0  0  0999 V2000
   16.2513    5.2487    3.5060 F   0  0  0  0  0  0  0  0  0  0  0  0
   10.3384   -1.7770    5.6667 F   0  0  0  0  0  0  0  0  0  0  0  0
    8.7775    9.0507   -0.7914 O   0  0  0  0  0  0  0  0  0  0  0  0
    5.3564    8.0734   -0.6610 N   0  0  0  0  0  0  0  0  0  0  0  0
    7.9427    5.0125    0.4342 N   0  0  0  0  0  0  0  0  0  0  0  0
    6.7008    9.7424   -1.4419 N   0  0  0  0  0  0  0  0  0  0  0  0
    6.7708    7.5909   -0.4509 C   0  0  0  0  0  0  0  0  0  0  0  0
    7.1959    6.5089   -1.4551 C   0  0  0  0  0  0  0  0  0  0  0  0
    7.1425    7.3192    1.0111 C   0  0  0  0  0  0  0  0  0  0  0  0
    7.3154    5.0960   -0.8949 C   0  0  0  0  0  0  0  0  0  0  0  0
    7.2485    5.8515    1.4145 C   0  0  0  0  0  0  0  0  0  0  0  0
    7.5658    8.8493   -0.8758 C   0  0  0  0  0  0  0  0  0  0  0  0
    5.3498    9.3363   -1.3881 C   0  0  0  0  0  0  0  0  0  0  0  0
    7.9668    3.5933    0.8633 C   0  0  0  0  0  0  0  0  0  0  0  0
    4.1512    7.4455   -0.4055 C   0  0  0  0  0  0  0  0  0  0  0  0
    8.6022    3.3028    2.2415 C   0  0  0  0  0  0  0  0  0  0  0  0
   10.0723    3.7320    2.2995 C   0  0  0  0  0  0  0  0  0  0  0  0
   10.8156    3.5186    3.6498 C   0  0  0  0  0  0  0  0  0  0  0  0
    2.9084    8.0656   -0.6472 C   0  0  0  0  0  0  0  0  0  0  0  0
    4.0564    6.1560    0.1175 C   0  0  0  0  0  0  0  0  0  0  0  0
   12.2827    4.0115    3.5825 C   0  0  0  0  0  0  0  0  0  0  0  0
   10.6903    2.0876    4.1911 C   0  0  0  0  0  0  0  0  0  0  0  0
    1.6780    7.4398   -0.3830 C   0  0  0  0  0  0  0  0  0  0  0  0
    2.8416    5.5181    0.4069 C   0  0  0  0  0  0  0  0  0  0  0  0
    1.6448    6.1614    0.1505 C   0  0  0  0  0  0  0  0  0  0  0  0
   12.9395    4.4166    4.7606 C   0  0  0  0  0  0  0  0  0  0  0  0
   11.5857    1.0772    3.8018 C   0  0  0  0  0  0  0  0  0  0  0  0
   13.0189    4.0494    2.3791 C   0  0  0  0  0  0  0  0  0  0  0  0
    9.6578    1.7460    5.0911 C   0  0  0  0  0  0  0  0  0  0  0  0
   14.2765    4.8361    4.7328 C   0  0  0  0  0  0  0  0  0  0  0  0
   11.4699   -0.2219    4.3041 C   0  0  0  0  0  0  0  0  0  0  0  0
   14.3512    4.4727    2.3522 C   0  0  0  0  0  0  0  0  0  0  0  0
    9.5360    0.4405    5.5846 C   0  0  0  0  0  0  0  0  0  0  0  0
   14.9705    4.8560    3.5304 C   0  0  0  0  0  0  0  0  0  0  0  0
   10.4467   -0.5297    5.1891 C   0  0  0  0  0  0  0  0  0  0  0  0
  1 34  1  0  0  0  0
  2 35  1  0  0  0  0
  3 12  2  0  0  0  0
  4  7  1  0  0  0  0
  4 13  1  0  0  0  0
  4 15  1  0  0  0  0
  5 10  1  0  0  0  0
  5 11  1  0  0  0  0
  5 14  1  0  0  0  0
  6 12  1  0  0  0  0
  6 13  1  0  0  0  0
  7  8  1  0  0  0  0
  7  9  1  0  0  0  0
  7 12  1  0  0  0  0
  8 10  1  0  0  0  0
  9 11  1  0  0  0  0
 14 16  1  0  0  0  0
 15 19  2  0  0  0  0
 15 20  1  0  0  0  0
 16 17  1  0  0  0  0
 17 18  1  0  0  0  0
 18 21  1  0  0  0  0
 18 22  1  0  0  0  0
 19 23  1  0  0  0  0
 20 24  2  0  0  0  0
 21 26  2  0  0  0  0
 21 28  1  0  0  0  0
 22 27  2  0  0  0  0
 22 29  1  0  0  0  0
 23 25  2  0  0  0  0
 24 25  1  0  0  0  0
 26 30  1  0  0  0  0
 27 31  1  0  0  0  0
 28 32  2  0  0  0  0
 29 33  2  0  0  0  0
 30 34  2  0  0  0  0
 31 35  2  0  0  0  0
 32 34  1  0  0  0  0
 33 35  1  0  0  0  0
M  END
