
 OpenBabel10141417493D

 34 37  0  0  1  0  0  0  0  0999 V2000
    1.9281    4.6909   -0.8591 C   0  0  0  0  0  0  0  0  0  0  0  0
    1.7022    3.8160    0.3018 C   0  0  0  0  0  0  0  0  0  0  0  0
    2.0668    2.3957    0.1497 C   0  0  0  0  0  0  0  0  0  0  0  0
    2.5518    1.8995   -1.0039 C   0  0  0  0  0  0  0  0  0  0  0  0
    2.7781    2.7370   -2.2794 C   0  0  2  0  0  0  0  0  0  0  0  0
    2.4124    4.2012   -2.0084 C   0  0  0  0  0  0  0  0  0  0  0  0
    2.9677    0.4577   -1.0675 C   0  0  2  0  0  0  0  0  0  0  0  0
    4.4263    0.3497   -1.4704 C   0  0  0  0  0  0  0  0  0  0  0  0
    4.7183    1.0632   -2.8060 C   0  0  2  0  0  0  0  0  0  0  0  0
    4.2887    2.5559   -2.7585 C   0  0  2  0  0  0  0  0  0  0  0  0
    6.1819    0.8042   -3.2470 C   0  0  1  0  0  0  0  0  0  0  0  0
    6.7866    1.7164   -4.3593 C   0  0  2  0  0  0  0  0  0  0  0  0
    6.1504    3.1253   -4.3889 C   0  0  0  0  0  0  0  0  0  0  0  0
    4.6447    3.1930   -4.1284 C   0  0  2  0  0  0  0  0  0  0  0  0
    7.2251    0.7877   -2.1328 C   0  0  0  0  0  0  0  0  0  0  0  0
    8.5620    0.7317   -2.8751 C   0  0  2  0  0  0  0  0  0  0  0  0
    8.3798    1.7412   -4.0556 C   0  0  1  0  0  0  0  0  0  0  0  0
    1.2343    4.2445    1.3481 O   0  0  0  0  0  0  0  0  0  0  0  0
    1.7865    2.2703   -3.3708 C   0  0  0  0  0  0  0  0  0  0  0  0
    5.0855    3.1651   -1.8144 F   0  0  0  0  0  0  0  0  0  0  0  0
    4.2994    4.5777   -4.2013 O   0  0  0  0  0  0  0  0  0  0  0  0
    6.4689    1.0613   -5.7302 C   0  0  0  0  0  0  0  0  0  0  0  0
    9.0683    1.2403   -5.2403 O   0  0  0  0  0  0  0  0  0  0  0  0
    8.8769   -0.7178   -3.2915 C   0  0  0  0  0  0  0  0  0  0  0  0
    2.2181   -0.2161   -1.9805 F   0  0  0  0  0  0  0  0  0  0  0  0
    8.9246    3.1928   -3.7690 C   0  0  0  0  0  0  0  0  0  0  0  0
    9.3182    3.9328   -4.6688 O   0  0  0  0  0  0  0  0  0  0  0  0
    8.8306    3.8092   -2.1096 S   0  0  0  0  0  0  0  0  0  0  0  0
    9.5036    5.4513   -2.3875 C   0  0  0  0  0  0  0  0  0  0  0  0
    9.4651    6.1475   -1.2179 F   0  0  0  0  0  0  0  0  0  0  0  0
   10.4322    1.1666   -5.2060 C   0  0  0  0  0  0  0  0  0  0  0  0
   10.9353    0.3844   -6.3946 C   0  0  0  0  0  0  0  0  0  0  0  0
   11.1629    1.2587   -7.6058 C   0  0  0  0  0  0  0  0  0  0  0  0
   11.1339    1.5783   -4.3044 O   0  0  0  0  0  0  0  0  0  0  0  0
  1  2  1  0  0  0  0
  1  6  2  0  0  0  0
  2  3  1  0  0  0  0
  2 18  2  0  0  0  0
  3  4  2  0  0  0  0
  4  5  1  0  0  0  0
  4  7  1  0  0  0  0
  5  6  1  0  0  0  0
  5 10  1  0  0  0  0
  5 19  1  1  0  0  0
  7  8  1  0  0  0  0
  7 25  1  6  0  0  0
  9  8  1  6  0  0  0
  9 10  1  0  0  0  0
  9 11  1  0  0  0  0
 10 14  1  0  0  0  0
 10 20  1  6  0  0  0
 11 12  1  0  0  0  0
 11 15  1  1  0  0  0
 12 13  1  0  0  0  0
 12 17  1  0  0  0  0
 12 22  1  1  0  0  0
 13 14  1  0  0  0  0
 14 21  1  1  0  0  0
 15 16  1  0  0  0  0
 16 17  1  0  0  0  0
 16 24  1  6  0  0  0
 17 23  1  6  0  0  0
 17 26  1  0  0  0  0
 26 27  2  0  0  0  0
 26 28  1  0  0  0  0
 28 29  1  0  0  0  0
 29 30  1  0  0  0  0
 31 32  1  0  0  0  0
 31 23  1  0  0  0  0
 31 34  2  0  0  0  0
 32 33  1  0  0  0  0
M  END
