499
 OpenBabel10141417483D

 19 19  0  0  0  0  0  0  0  0999 V2000
    1.4117   -0.7324    0.1801 F   0  0  0  0  0  0  0  0  0  0  0  0
    1.4673    0.6180   -1.5162 F   0  0  0  0  0  0  0  0  0  0  0  0
   -0.1266    0.7689   -0.0366 F   0  0  0  0  0  0  0  0  0  0  0  0
    4.8073   -0.7615    2.8035 O   0  0  0  0  0  0  0  0  0  0  0  0
    0.0060    3.3205   -0.6452 O   0  5  0  0  0  0  0  0  0  0  0  0
    1.8148    4.0951   -1.6327 O   0  0  0  0  0  0  0  0  0  0  0  0
    4.7165    1.5163    3.2490 N   0  0  0  0  0  0  0  0  0  0  0  0
    1.2274    3.4726   -0.7395 N   0  3  0  0  0  0  0  0  0  0  0  0
    6.2398    0.1224    4.5335 C   0  0  0  0  0  0  0  0  0  0  0  0
    3.7713    1.9439    2.2959 C   0  0  0  0  0  0  0  0  0  0  0  0
    5.1652    0.2151    3.4447 C   0  0  0  0  0  0  0  0  0  0  0  0
    2.0507    1.5407    0.5950 C   0  0  0  0  0  0  0  0  0  0  0  0
    2.9231    1.0740    1.5990 C   0  0  0  0  0  0  0  0  0  0  0  0
    5.6828    0.5249    5.8966 C   0  0  0  0  0  0  0  0  0  0  0  0
    6.8305   -1.2861    4.6022 C   0  0  0  0  0  0  0  0  0  0  0  0
    2.0513    2.9152    0.3220 C   0  0  0  0  0  0  0  0  0  0  0  0
    3.7101    3.3172    2.0299 C   0  0  0  0  0  0  0  0  0  0  0  0
    2.8629    3.8071    1.0352 C   0  0  0  0  0  0  0  0  0  0  0  0
    1.2072    0.5649   -0.1824 C   0  0  0  0  0  0  0  0  0  0  0  0
  1 19  1  0  0  0  0
  2 19  1  0  0  0  0
  3 19  1  0  0  0  0
  4 11  2  0  0  0  0
  5  8  1  0  0  0  0
  6  8  2  0  0  0  0
  7 10  1  0  0  0  0
  7 11  1  0  0  0  0
  8 16  1  0  0  0  0
  9 11  1  0  0  0  0
  9 14  1  0  0  0  0
  9 15  1  0  0  0  0
 10 13  2  0  0  0  0
 10 17  1  0  0  0  0
 12 13  1  0  0  0  0
 12 16  2  0  0  0  0
 12 19  1  0  0  0  0
 16 18  1  0  0  0  0
 17 18  2  0  0  0  0
M  CHG  2   5  -1   8   1
M  END
