
 OpenBabel10141417483D

 30 32  0  0  0  0  0  0  0  0999 V2000
    0.5520   -0.5185   -0.8974 F   0  0  0  0  0  0  0  0  0  0  0  0
    5.6883    4.2279    2.1647 O   0  0  0  0  0  0  0  0  0  0  0  0
    6.3236    6.8107    2.2865 O   0  0  0  0  0  0  0  0  0  0  0  0
    8.2465   10.1439    0.6674 O   0  0  0  0  0  0  0  0  0  0  0  0
    6.2389    9.5043    1.4123 O   0  0  0  0  0  0  0  0  0  0  0  0
    8.2901    0.5795   -1.1550 N   0  0  0  0  0  0  0  0  0  0  0  0
    9.3882    1.5119   -1.4563 C   0  0  0  0  0  0  0  0  0  0  0  0
    6.9665    0.9357   -0.9038 C   0  0  0  0  0  0  0  0  0  0  0  0
    8.4037   -0.8050   -1.1819 C   0  0  0  0  0  0  0  0  0  0  0  0
    6.1860   -0.2233   -0.9924 C   0  0  0  0  0  0  0  0  0  0  0  0
    7.1062   -1.3281   -1.1444 C   0  0  0  0  0  0  0  0  0  0  0  0
    6.6263    2.3035   -0.6939 C   0  0  0  0  0  0  0  0  0  0  0  0
   10.5685    1.4190   -0.4844 C   0  0  0  0  0  0  0  0  0  0  0  0
    9.8336    1.4213   -2.9225 C   0  0  0  0  0  0  0  0  0  0  0  0
    4.7070   -0.2638   -0.9122 C   0  0  0  0  0  0  0  0  0  0  0  0
    9.5286   -1.6515   -1.2714 C   0  0  0  0  0  0  0  0  0  0  0  0
    6.9639   -2.7357   -1.2660 C   0  0  0  0  0  0  0  0  0  0  0  0
    6.1544    4.2502    0.8204 C   0  0  1  0  0  0  0  0  0  0  0  0
    7.2164    5.3441    0.5976 C   0  0  0  0  0  0  0  0  0  0  0  0
    6.6715    2.8642    0.5261 C   0  0  0  0  0  0  0  0  0  0  0  0
    6.7078    6.7693    0.9074 C   0  0  2  0  0  0  0  0  0  0  0  0
    9.3535   -3.0340   -1.2902 C   0  0  0  0  0  0  0  0  0  0  0  0
    8.0821   -3.5744   -1.3059 C   0  0  0  0  0  0  0  0  0  0  0  0
    3.9036    0.8029   -1.3521 C   0  0  0  0  0  0  0  0  0  0  0  0
    4.0420   -1.4080   -0.4354 C   0  0  0  0  0  0  0  0  0  0  0  0
    7.7950    7.8098    0.6328 C   0  0  0  0  0  0  0  0  0  0  0  0
    2.5048    0.7314   -1.3188 C   0  0  0  0  0  0  0  0  0  0  0  0
    2.6447   -1.5077   -0.4536 C   0  0  0  0  0  0  0  0  0  0  0  0
    1.8885   -0.4324   -0.8894 C   0  0  0  0  0  0  0  0  0  0  0  0
    7.3047    9.2046    0.9344 C   0  0  0  0  0  0  0  0  0  0  0  0
  1 29  1  0  0  0  0
  4 30  1  0  0  0  0
  5 30  2  0  0  0  0
  6  7  1  0  0  0  0
  6  8  1  0  0  0  0
  6  9  1  0  0  0  0
  7 13  1  0  0  0  0
  7 14  1  0  0  0  0
  8 10  2  0  0  0  0
  8 12  1  0  0  0  0
  9 11  1  0  0  0  0
  9 16  2  0  0  0  0
 10 11  1  0  0  0  0
 10 15  1  0  0  0  0
 11 17  2  0  0  0  0
 12 20  2  0  0  0  0
 15 24  2  0  0  0  0
 15 25  1  0  0  0  0
 16 22  1  0  0  0  0
 17 23  1  0  0  0  0
 18  2  1  1  0  0  0
 18 19  1  0  0  0  0
 18 20  1  0  0  0  0
 19 21  1  0  0  0  0
 21  3  1  1  0  0  0
 21 26  1  0  0  0  0
 22 23  2  0  0  0  0
 24 27  1  0  0  0  0
 25 28  2  0  0  0  0
 26 30  1  0  0  0  0
 27 29  2  0  0  0  0
 28 29  1  0  0  0  0
M  END
