176
 OpenBabel10141417503D

 22 22  0  0  0  0  0  0  0  0999 V2000
    8.6057   12.2217   -3.5090 F   0  0  0  0  0  0  0  0  0  0  0  0
    9.1111   11.4356   -1.5492 F   0  0  0  0  0  0  0  0  0  0  0  0
    7.3105   12.6202   -1.8053 F   0  0  0  0  0  0  0  0  0  0  0  0
    5.0160    4.5432   -8.0036 O   0  0  0  0  0  0  0  0  0  0  0  0
    4.3863    5.5258   -1.3909 O   0  0  0  0  0  0  0  0  0  0  0  0
    5.3361    5.3001   -2.3921 N   0  0  0  0  0  0  0  0  0  0  0  0
    1.8388    2.6400   -0.8863 N   0  0  0  0  0  0  0  0  0  0  0  0
    5.9301    4.8060   -5.2082 C   0  0  0  0  0  0  0  0  0  0  0  0
    6.8406    5.4914   -4.1707 C   0  0  0  0  0  0  0  0  0  0  0  0
    6.6858    4.0531   -6.3148 C   0  0  0  0  0  0  0  0  0  0  0  0
    6.0130    6.2186   -3.0624 C   0  0  0  0  0  0  0  0  0  0  0  0
    6.1779    7.7217   -2.9433 C   0  0  0  0  0  0  0  0  0  0  0  0
    5.7337    3.4820   -7.3752 C   0  0  0  0  0  0  0  0  0  0  0  0
    6.6037    8.4910   -4.0449 C   0  0  0  0  0  0  0  0  0  0  0  0
    6.1853    8.3887   -1.6925 C   0  0  0  0  0  0  0  0  0  0  0  0
    7.2853   10.3750   -2.6566 C   0  0  0  0  0  0  0  0  0  0  0  0
    7.1331    9.7954   -3.9172 C   0  0  0  0  0  0  0  0  0  0  0  0
    6.7374    9.6794   -1.5607 C   0  0  0  0  0  0  0  0  0  0  0  0
    8.0620   11.6511   -2.3979 C   0  0  0  0  0  0  0  0  0  0  0  0
    3.3868    4.4792   -1.5879 C   0  0  0  0  0  0  0  0  0  0  0  0
    4.0850    4.0777   -8.9746 C   0  0  0  0  0  0  0  0  0  0  0  0
    2.9780    3.4931   -0.4537 C   0  0  0  0  0  0  0  0  0  0  0  0
  1 19  1  0  0  0  0
  2 19  1  0  0  0  0
  3 19  1  0  0  0  0
  4 13  1  0  0  0  0
  4 21  1  0  0  0  0
  5  6  1  0  0  0  0
  5 20  1  0  0  0  0
  6 11  2  3  0  0  0
  7 22  1  0  0  0  0
  8  9  1  0  0  0  0
  8 10  1  0  0  0  0
  9 11  1  0  0  0  0
 10 13  1  0  0  0  0
 11 12  1  0  0  0  0
 12 14  2  0  0  0  0
 12 15  1  0  0  0  0
 14 17  1  0  0  0  0
 15 18  2  0  0  0  0
 16 17  2  0  0  0  0
 16 18  1  0  0  0  0
 16 19  1  0  0  0  0
 20 22  1  0  0  0  0
M  END
