158
 OpenBabel10141417503D

 32 34  0  0  1  0  0  0  0  0999 V2000
    4.0304   -1.8731    1.5015 O   0  0  0  0  0  0  0  0  0  0  0  0
    0.4600   -2.0115    1.5816 O   0  0  0  0  0  0  0  0  0  0  0  0
    4.3724    0.3287    1.1590 O   0  0  0  0  0  0  0  0  0  0  0  0
    0.6131    2.1559   -2.1729 O   0  0  0  0  0  0  0  0  0  0  0  0
    0.9220    0.0538   -2.8488 O   0  0  0  0  0  0  0  0  0  0  0  0
   -1.1698  -11.1879    3.6398 O   0  0  0  0  0  0  0  0  0  0  0  0
    1.9720   -2.1087   -0.1413 N   0  0  0  0  0  0  0  0  0  0  0  0
   -1.0576   -7.8373   -0.5216 N   0  0  0  0  0  0  0  0  0  0  0  0
   -0.8349  -10.4686    0.9699 N   0  0  0  0  0  0  0  0  0  0  0  0
   -1.9868  -13.9562    0.9024 N   0  0  0  0  0  0  0  0  0  0  0  0
   -1.4028  -12.5444   -0.8872 N   0  0  0  0  0  0  0  0  0  0  0  0
   -1.6925  -13.3587    3.1613 N   0  0  0  0  0  0  0  0  0  0  0  0
   -2.3021  -15.4828    2.5367 N   0  0  0  0  0  0  0  0  0  0  0  0
    2.5155   -0.7372   -0.0250 C   0  0  1  0  0  0  0  0  0  0  0  0
    1.5050    0.3670    0.3407 C   0  0  0  0  0  0  0  0  0  0  0  0
    0.2743    0.4454   -0.5573 C   0  0  0  0  0  0  0  0  0  0  0  0
    0.9638   -2.6228    0.6567 C   0  0  0  0  0  0  0  0  0  0  0  0
    0.4872   -3.9917    0.3303 C   0  0  0  0  0  0  0  0  0  0  0  0
    3.7164   -0.6794    0.9416 C   0  0  0  0  0  0  0  0  0  0  0  0
   -0.5034   -6.5911   -0.2145 C   0  0  0  0  0  0  0  0  0  0  0  0
   -0.1940   -8.9597   -0.8823 C   0  0  0  0  0  0  0  0  0  0  0  0
    1.3354   -4.9715   -0.1814 C   0  0  0  0  0  0  0  0  0  0  0  0
   -0.8514   -4.3059    0.5755 C   0  0  0  0  0  0  0  0  0  0  0  0
    0.8361   -6.2517   -0.4529 C   0  0  0  0  0  0  0  0  0  0  0  0
   -1.3475   -5.5773    0.2599 C   0  0  0  0  0  0  0  0  0  0  0  0
   -0.7149  -10.2835   -0.3712 C   0  0  0  0  0  0  0  0  0  0  0  0
    0.6227    0.8214   -1.9665 C   0  0  0  0  0  0  0  0  0  0  0  0
   -1.2431  -11.7130    1.3497 C   0  0  0  0  0  0  0  0  0  0  0  0
   -1.5357  -12.7292    0.4454 C   0  0  0  0  0  0  0  0  0  0  0  0
   -0.9821  -11.3138   -1.2688 C   0  0  0  0  0  0  0  0  0  0  0  0
   -1.3665  -12.0586    2.7991 C   0  0  0  0  0  0  0  0  0  0  0  0
   -1.9790  -14.2041    2.2291 C   0  0  0  0  0  0  0  0  0  0  0  0
  1 19  1  0  0  0  0
  2 17  2  0  0  0  0
  3 19  2  0  0  0  0
  4 27  1  0  0  0  0
  5 27  2  0  0  0  0
  6 31  2  0  0  0  0
  7 17  1  0  0  0  0
  8 20  1  0  0  0  0
  8 21  1  0  0  0  0
  9 26  1  0  0  0  0
  9 28  2  0  0  0  0
 10 29  1  0  0  0  0
 10 32  1  0  0  0  0
 11 29  2  0  0  0  0
 11 30  1  0  0  0  0
 12 31  1  0  0  0  0
 12 32  2  0  0  0  0
 13 32  1  0  0  0  0
 14  7  1  1  0  0  0
 14 15  1  0  0  0  0
 14 19  1  0  0  0  0
 15 16  1  0  0  0  0
 16 27  1  0  0  0  0
 17 18  1  0  0  0  0
 18 22  2  0  0  0  0
 18 23  1  0  0  0  0
 20 24  2  0  0  0  0
 20 25  1  0  0  0  0
 21 26  1  0  0  0  0
 22 24  1  0  0  0  0
 23 25  2  0  0  0  0
 26 30  2  0  0  0  0
 28 29  1  0  0  0  0
 28 31  1  0  0  0  0
M  END
