1213
 OpenBabel10141417493D

  6  6  0  0  0  0  0  0  0  0999 V2000
   -1.1230   -0.0064   -0.0023 N   0  0  0  0  0  0  0  0  0  0  0  0
   -0.3958   -1.1344   -0.0045 N   0  0  0  0  0  0  0  0  0  0  0  0
    0.9512    0.7149    0.0011 C   0  0  0  0  0  0  0  0  0  0  0  0
   -0.3640    1.1271    0.0011 C   0  0  0  0  0  0  0  0  0  0  0  0
    2.1753    1.5450    0.0039 C   0  0  0  0  0  0  0  0  0  0  0  0
    0.8649   -0.6959   -0.0024 C   0  0  0  0  0  0  0  0  0  0  0  0
  1  2  1  0  0  0  0
  1  4  1  0  0  0  0
  2  6  2  0  0  0  0
  3  4  2  0  0  0  0
  3  5  1  0  0  0  0
  3  6  1  0  0  0  0
M  END
