1342
 OpenBabel10141417533D

 31 34  0  0  0  0  0  0  0  0999 V2000
    0.3316   -1.1067   -0.5512 N   0  0  0  0  0  0  0  0  0  0  0  0
   -0.0617    0.6277    0.7222 N   0  0  0  0  0  0  0  0  0  0  0  0
    1.3583   -0.2493   -0.7942 N   0  0  0  0  0  0  0  0  0  0  0  0
    2.6759   -5.4168   -0.4089 N   0  0  0  0  0  0  0  0  0  0  0  0
    6.8910   -3.1526   -0.8395 N   0  0  0  0  0  0  0  0  0  0  0  0
    7.6280   -3.3119    1.2887 N   0  0  0  0  0  0  0  0  0  0  0  0
    7.3947   -2.0085   -0.3466 N   0  0  0  0  0  0  0  0  0  0  0  0
    7.9079   -2.0805    0.8852 N   0  0  0  0  0  0  0  0  0  0  0  0
   -2.0150   -0.9058    0.4407 C   0  0  0  0  0  0  0  0  0  0  0  0
   -0.6081   -0.4652    0.2258 C   0  0  0  0  0  0  0  0  0  0  0  0
   -2.6553   -0.2810    1.6913 C   0  0  0  0  0  0  0  0  0  0  0  0
    2.1385    1.7608    0.4400 C   0  0  0  0  0  0  0  0  0  0  0  0
    0.3299   -2.4640   -1.1119 C   0  0  0  0  0  0  0  0  0  0  0  0
    1.1500    0.7022    0.1152 C   0  0  0  0  0  0  0  0  0  0  0  0
    1.6613    3.1617    0.0625 C   0  0  0  0  0  0  0  0  0  0  0  0
   -2.8751    1.2416    1.6723 C   0  0  0  0  0  0  0  0  0  0  0  0
    1.5821   -3.2721   -0.8306 C   0  0  0  0  0  0  0  0  0  0  0  0
    1.5201    3.3457   -1.4486 C   0  0  0  0  0  0  0  0  0  0  0  0
   -3.8688    1.7179    0.6271 C   0  0  0  0  0  0  0  0  0  0  0  0
    2.8365   -2.7016   -0.7361 C   0  0  0  0  0  0  0  0  0  0  0  0
    1.5719   -4.6549   -0.6841 C   0  0  0  0  0  0  0  0  0  0  0  0
    1.0116    4.7364   -1.7904 C   0  0  0  0  0  0  0  0  0  0  0  0
    3.8853   -4.8095   -0.2199 C   0  0  0  0  0  0  0  0  0  0  0  0
    3.9416   -3.4367   -0.3451 C   0  0  0  0  0  0  0  0  0  0  0  0
    5.0581   -5.6843    0.1509 C   0  0  0  0  0  0  0  0  0  0  0  0
    6.4044   -5.2790    0.3883 C   0  0  0  0  0  0  0  0  0  0  0  0
    4.7844   -7.0726    0.3111 C   0  0  0  0  0  0  0  0  0  0  0  0
    7.3593   -6.2325    0.8342 C   0  0  0  0  0  0  0  0  0  0  0  0
    5.7520   -7.9980    0.7294 C   0  0  0  0  0  0  0  0  0  0  0  0
    6.9436   -3.9259    0.2610 C   0  0  0  0  0  0  0  0  0  0  0  0
    7.0374   -7.5705    0.9996 C   0  0  0  0  0  0  0  0  0  0  0  0
  1  3  1  0  0  0  0
  1 10  1  0  0  0  0
  1 13  1  0  0  0  0
  2 10  2  0  0  0  0
  2 14  1  0  0  0  0
  3 14  2  0  0  0  0
  4 21  1  0  0  0  0
  4 23  2  0  0  0  0
  5  7  1  0  0  0  0
  5 30  2  0  0  0  0
  6  8  2  0  0  0  0
  6 30  1  0  0  0  0
  7  8  1  0  0  0  0
  9 10  1  0  0  0  0
  9 11  1  0  0  0  0
 11 16  1  0  0  0  0
 12 14  1  0  0  0  0
 12 15  1  0  0  0  0
 13 17  1  0  0  0  0
 15 18  1  0  0  0  0
 16 19  1  0  0  0  0
 17 20  1  0  0  0  0
 17 21  2  0  0  0  0
 18 22  1  0  0  0  0
 20 24  2  0  0  0  0
 23 24  1  0  0  0  0
 23 25  1  0  0  0  0
 25 26  1  0  0  0  0
 25 27  2  0  0  0  0
 26 28  2  0  0  0  0
 26 30  1  0  0  0  0
 27 29  1  0  0  0  0
 28 31  1  0  0  0  0
 29 31  2  0  0  0  0
M  END
