983
 OpenBabel10141417493D

 25 26  0  0  1  0  0  0  0  0999 V2000
    0.1519   -0.1376   -0.7941 O   0  0  0  0  0  0  0  0  0  0  0  0
    4.6192   -5.2808    4.3998 O   0  0  0  0  0  0  0  0  0  0  0  0
    3.7395    5.0148    0.0572 O   0  0  0  0  0  0  0  0  0  0  0  0
    5.4552    2.7773    4.0820 O   0  0  0  0  0  0  0  0  0  0  0  0
    1.8385   -2.5362   -0.9808 N   0  0  0  0  0  0  0  0  0  0  0  0
    4.3362    3.1601    2.1482 N   0  0  0  0  0  0  0  0  0  0  0  0
    2.7756   -3.4528   -1.6752 C   0  0  3  0  0  0  0  0  0  0  0  0
    4.1739   -3.5667   -1.0122 C   0  0  0  0  0  0  0  0  0  0  0  0
    2.3568   -1.1459   -0.9498 C   0  0  0  0  0  0  0  0  0  0  0  0
    1.4326   -0.1804   -0.1682 C   0  0  3  0  0  0  0  0  0  0  0  0
    2.1431   -4.8425   -1.8565 C   0  0  0  0  0  0  0  0  0  0  0  0
    4.2118   -4.0047    0.4363 C   0  0  0  0  0  0  0  0  0  0  0  0
    2.0349    1.2122   -0.0911 C   0  0  0  0  0  0  0  0  0  0  0  0
    2.8805    1.5501    0.9841 C   0  0  0  0  0  0  0  0  0  0  0  0
    4.3714   -5.3521    0.7752 C   0  0  0  0  0  0  0  0  0  0  0  0
    4.1385   -3.0636    1.4725 C   0  0  0  0  0  0  0  0  0  0  0  0
    1.8083    2.1648   -1.0910 C   0  0  0  0  0  0  0  0  0  0  0  0
    3.4800    2.8171    1.0815 C   0  0  0  0  0  0  0  0  0  0  0  0
    2.3991    3.4258   -1.0135 C   0  0  0  0  0  0  0  0  0  0  0  0
    4.4970   -5.7341    2.1148 C   0  0  0  0  0  0  0  0  0  0  0  0
    4.2452   -3.4481    2.8103 C   0  0  0  0  0  0  0  0  0  0  0  0
    3.2193    3.7492    0.0662 C   0  0  0  0  0  0  0  0  0  0  0  0
    4.4471   -4.7853    3.1372 C   0  0  0  0  0  0  0  0  0  0  0  0
    4.7025    2.3836    3.2115 C   0  0  0  0  0  0  0  0  0  0  0  0
    4.5833   -4.3336    5.4607 C   0  0  0  0  0  0  0  0  0  0  0  0
  1 10  1  0  0  0  0
  2 23  1  0  0  0  0
  2 25  1  0  0  0  0
  3 22  1  0  0  0  0
  4 24  2  0  0  0  0
  5  7  1  0  0  0  0
  5  9  1  0  0  0  0
  6 18  1  0  0  0  0
  6 24  1  0  0  0  0
  7  8  1  0  0  0  0
  7 11  1  0  0  0  0
  8 12  1  0  0  0  0
  9 10  1  0  0  0  0
 10 13  1  0  0  0  0
 12 15  2  0  0  0  0
 12 16  1  0  0  0  0
 13 14  2  0  0  0  0
 13 17  1  0  0  0  0
 14 18  1  0  0  0  0
 15 20  1  0  0  0  0
 16 21  2  0  0  0  0
 17 19  2  0  0  0  0
 18 22  2  0  0  0  0
 19 22  1  0  0  0  0
 20 23  2  0  0  0  0
 21 23  1  0  0  0  0
M  END
