
 OpenBabel10141417493D

 22 25  0  0  1  0  0  0  0  0999 V2000
   -2.3045    0.0436    1.2515 C   0  0  1  0  0  0  0  0  0  0  0  0
   -1.8779   -1.0781    0.2925 C   0  0  1  0  0  0  0  0  0  0  0  0
   -2.4838   -2.3285    0.9735 C   0  0  0  0  0  0  0  0  0  0  0  0
   -3.9043   -1.8605    1.3916 C   0  0  0  0  0  0  0  0  0  0  0  0
   -3.7489   -0.3620    1.4527 C   0  0  0  0  0  0  0  0  0  0  0  0
   -2.2125    1.3709    0.5340 C   0  0  0  0  0  0  0  0  0  0  0  0
   -0.7857    1.6450    0.1332 C   0  0  0  0  0  0  0  0  0  0  0  0
   -0.0883    0.5470   -0.6977 C   0  0  1  0  0  0  0  0  0  0  0  0
   -0.4134   -0.9339   -0.2368 C   0  0  1  0  0  0  0  0  0  0  0  0
    1.4430    0.8790   -0.8349 C   0  0  2  0  0  0  0  0  0  0  0  0
    2.1212    0.5397    0.4870 C   0  0  0  0  0  0  0  0  0  0  0  0
    1.9440   -0.8719    0.9972 C   0  0  0  0  0  0  0  0  0  0  0  0
    0.7075   -1.6619    0.5295 C   0  0  0  0  0  0  0  0  0  0  0  0
    1.7023    2.3747   -1.2521 C   0  0  0  0  0  0  0  0  0  0  0  0
    1.8153    3.3789   -0.1103 C   0  0  0  0  0  0  0  0  0  0  0  0
    2.8365    2.8906    0.8779 C   0  0  0  0  0  0  0  0  0  0  0  0
    2.8259    1.4306    1.2095 C   0  0  0  0  0  0  0  0  0  0  0  0
    3.5725    3.6329    1.5056 O   0  0  0  0  0  0  0  0  0  0  0  0
   -4.6804    0.4195    1.5977 O   0  0  0  0  0  0  0  0  0  0  0  0
    3.5565    1.0637    2.3251 O   0  0  0  0  0  0  0  0  0  0  0  0
    2.0769    0.0416   -1.9759 C   0  0  0  0  0  0  0  0  0  0  0  0
   -1.5637    0.0211    2.6012 C   0  0  0  0  0  0  0  0  0  0  0  0
  1  2  1  0  0  0  0
  1  5  1  0  0  0  0
  1  6  1  0  0  0  0
  1 22  1  6  0  0  0
  2  3  1  6  0  0  0
  3  4  1  0  0  0  0
  4  5  1  0  0  0  0
  5 19  2  0  0  0  0
  6  7  1  0  0  0  0
  8  7  1  6  0  0  0
  8  9  1  0  0  0  0
  8 10  1  0  0  0  0
  9  2  1  0  0  0  0
  9 13  1  1  0  0  0
 10 11  1  0  0  0  0
 10 14  1  0  0  0  0
 10 21  1  6  0  0  0
 11 12  1  0  0  0  0
 12 13  1  0  0  0  0
 14 15  1  0  0  0  0
 15 16  1  0  0  0  0
 16 17  1  0  0  0  0
 16 18  2  0  0  0  0
 17 11  2  0  0  0  0
 17 20  1  0  0  0  0
M  END
