
 OpenBabel10141417543D

  7  6  0  0  0  0  0  0  0  0999 V2000
    0.9255   -0.0608   -0.0276 P   0  0  0  0  0  0  0  0  0  0  0  0
    0.9106   -0.8095   -1.5047 O   0  0  0  0  0  0  0  0  0  0  0  0
    0.8675   -1.4465    0.8760 O   0  0  0  0  0  0  0  0  0  0  0  0
   -0.6188   -0.0608   -0.0276 O   0  0  0  0  0  0  0  0  0  0  0  0
    3.3812    1.0184   -0.5464 O   0  0  0  0  0  0  0  0  0  0  0  0
    3.4146   -0.9640    0.4284 O   0  0  0  0  0  0  0  0  0  0  0  0
    2.7175   -0.0608   -0.0276 C   0  0  0  0  0  0  0  0  0  0  0  0
  1  2  1  0  0  0  0
  1  3  1  0  0  0  0
  1  4  2  0  0  0  0
  1  7  1  0  0  0  0
  5  7  1  0  0  0  0
  6  7  2  0  0  0  0
M  END
