828
 OpenBabel10141417483D

  8  8  0  0  1  0  0  0  0  0999 V2000
    3.3466    0.2501   -1.9189 P   0  0  0  0  0  0  0  0  0  0  0  0
    3.7957   -0.7096    0.6758 O   0  0  0  0  0  0  0  0  0  0  0  0
    2.4307   -0.7023   -2.8153 O   0  0  0  0  0  0  0  0  0  0  0  0
    2.7572    1.6880   -2.2990 O   0  0  0  0  0  0  0  0  0  0  0  0
    4.8080    0.1286   -2.1606 O   0  0  0  0  0  0  0  0  0  0  0  0
    2.9028   -0.0272   -0.2259 C   0  0  1  0  0  0  0  0  0  0  0  0
    3.5959    0.6869    0.9061 C   0  0  2  0  0  0  0  0  0  0  0  0
    4.8088    1.5255    0.7173 C   0  0  0  0  0  0  0  0  0  0  0  0
  1  3  1  0  0  0  0
  1  4  1  0  0  0  0
  1  5  2  0  0  0  0
  2  7  1  0  0  0  0
  6  2  1  0  0  0  0
  6  7  1  0  0  0  0
  6  1  1  6  0  0  0
  7  8  1  6  0  0  0
M  END
