1320
 OpenBabel10141417503D

 25 27  0  0  0  0  0  0  0  0999 V2000
    1.4652   -3.0816    1.7302 P   0  0  0  0  0  0  0  0  0  0  0  0
   -1.3857   -0.2676    4.2524 O   0  0  0  0  0  0  0  0  0  0  0  0
    1.2990   -2.1591    3.0211 O   0  0  0  0  0  0  0  0  0  0  0  0
    3.1107    0.4123    4.4061 O   0  0  0  0  0  0  0  0  0  0  0  0
    0.3035   -4.1685    1.8520 O   0  0  0  0  0  0  0  0  0  0  0  0
    2.7376   -3.9880    2.0393 O   0  0  0  0  0  0  0  0  0  0  0  0
    1.4601   -2.4068    0.4027 O   0  0  0  0  0  0  0  0  0  0  0  0
    1.4513    0.9120    5.8907 N   0  0  0  0  0  0  0  0  0  0  0  0
    0.8976   -0.1077    4.0006 N   0  0  0  0  0  0  0  0  0  0  0  0
    0.0080    0.8316    6.0043 C   0  0  0  0  0  0  0  0  0  0  0  0
   -0.2851    0.0921    4.6576 C   0  0  0  0  0  0  0  0  0  0  0  0
   -0.3314   -0.0099    7.2468 C   0  0  0  0  0  0  0  0  0  0  0  0
   -0.6489    2.2227    5.9664 C   0  0  0  0  0  0  0  0  0  0  0  0
    1.9319    0.3945    4.7162 C   0  0  0  0  0  0  0  0  0  0  0  0
    1.0337   -0.7972    2.7497 C   0  0  0  0  0  0  0  0  0  0  0  0
   -0.4143    0.5870    8.5195 C   0  0  0  0  0  0  0  0  0  0  0  0
    0.1003    3.4070    5.8103 C   0  0  0  0  0  0  0  0  0  0  0  0
   -0.5152   -1.4047    7.1695 C   0  0  0  0  0  0  0  0  0  0  0  0
   -2.0497    2.3448    6.0669 C   0  0  0  0  0  0  0  0  0  0  0  0
   -0.7224   -0.1709    9.6550 C   0  0  0  0  0  0  0  0  0  0  0  0
   -0.5247    4.6583    5.7666 C   0  0  0  0  0  0  0  0  0  0  0  0
   -0.8198   -2.1603    8.3058 C   0  0  0  0  0  0  0  0  0  0  0  0
   -2.6703    3.5956    6.0248 C   0  0  0  0  0  0  0  0  0  0  0  0
   -0.9315   -1.5424    9.5458 C   0  0  0  0  0  0  0  0  0  0  0  0
   -1.9098    4.7513    5.8759 C   0  0  0  0  0  0  0  0  0  0  0  0
  1  3  1  0  0  0  0
  1  5  1  0  0  0  0
  1  6  1  0  0  0  0
  1  7  2  0  0  0  0
  2 11  2  0  0  0  0
  3 15  1  0  0  0  0
  4 14  2  0  0  0  0
  8 10  1  0  0  0  0
  8 14  1  0  0  0  0
  9 11  1  0  0  0  0
  9 14  1  0  0  0  0
  9 15  1  0  0  0  0
 10 11  1  0  0  0  0
 10 12  1  0  0  0  0
 10 13  1  0  0  0  0
 12 16  2  0  0  0  0
 12 18  1  0  0  0  0
 13 17  2  0  0  0  0
 13 19  1  0  0  0  0
 16 20  1  0  0  0  0
 17 21  1  0  0  0  0
 18 22  2  0  0  0  0
 19 23  2  0  0  0  0
 20 24  2  0  0  0  0
 21 25  2  0  0  0  0
 22 24  1  0  0  0  0
 23 25  1  0  0  0  0
M  END
