452
 OpenBabel10141417493D

 42 45  0  0  1  0  0  0  0  0999 V2000
   -0.8003    1.2297   -6.2318 O   0  0  0  0  0  0  0  0  0  0  0  0
    2.1003    2.1098   -3.9874 O   0  0  0  0  0  0  0  0  0  0  0  0
   -0.0479   -0.5410   -7.5383 O   0  0  0  0  0  0  0  0  0  0  0  0
   -2.0142   -2.9105   -6.7357 O   0  0  0  0  0  0  0  0  0  0  0  0
    2.1696    2.9036   -7.2841 O   0  0  0  0  0  0  0  0  0  0  0  0
    1.4956    4.2613   -4.7008 O   0  0  0  0  0  0  0  0  0  0  0  0
   -1.3346   -4.8983   -5.7670 O   0  0  0  0  0  0  0  0  0  0  0  0
   -3.3648   -0.5528   -6.0888 O   0  0  0  0  0  0  0  0  0  0  0  0
    1.5720    5.5893   -1.4157 O   0  0  0  0  0  0  0  0  0  0  0  0
   -1.1413    5.3418   -3.8817 O   0  0  0  0  0  0  0  0  0  0  0  0
   -3.2920   -6.7594   -8.9004 O   0  0  0  0  0  0  0  0  0  0  0  0
   -1.1425   -2.0664  -10.6392 O   0  0  0  0  0  0  0  0  0  0  0  0
   -3.9768   -5.8618   -5.6229 O   0  0  0  0  0  0  0  0  0  0  0  0
    1.1339   -1.3064   -3.9026 N   0  0  0  0  0  0  0  0  0  0  0  0
    3.3537    0.1678   -8.0368 N   0  0  0  0  0  0  0  0  0  0  0  0
   -0.6073    2.8665   -2.7092 N   0  0  0  0  0  0  0  0  0  0  0  0
   -2.0754   -4.3809   -9.5513 N   0  0  0  0  0  0  0  0  0  0  0  0
    3.3726    6.5895   -5.2625 N   0  0  0  0  0  0  0  0  0  0  0  0
   -2.3717   -6.7164   -3.5146 N   0  0  0  0  0  0  0  0  0  0  0  0
    0.5356    1.6884   -5.8815 C   0  0  1  0  0  0  0  0  0  0  0  0
    1.1005    1.2000   -4.5186 C   0  0  1  0  0  0  0  0  0  0  0  0
    1.8414   -0.1844   -4.5449 C   0  0  2  0  0  0  0  0  0  0  0  0
    1.5854    1.6059   -7.0254 C   0  0  2  0  0  0  0  0  0  0  0  0
    2.7595    0.6177   -6.7609 C   0  0  1  0  0  0  0  0  0  0  0  0
    2.3901   -0.5992   -5.9123 C   0  0  0  0  0  0  0  0  0  0  0  0
   -0.9459   -0.1502   -6.5123 C   0  0  2  0  0  0  0  0  0  0  0  0
   -2.0229   -1.8647   -7.7285 C   0  0  1  0  0  0  0  0  0  0  0  0
   -2.3302   -0.5080   -7.0610 C   0  0  1  0  0  0  0  0  0  0  0  0
   -0.6496   -1.5487   -8.3469 C   0  0  1  0  0  0  0  0  0  0  0  0
    1.7564    3.4365   -3.5643 C   0  0  1  0  0  0  0  0  0  0  0  0
    0.6873    3.5306   -2.4186 C   0  0  1  0  0  0  0  0  0  0  0  0
    0.4446    5.0230   -2.0859 C   0  0  2  0  0  0  0  0  0  0  0  0
   -1.3266   -4.1393   -7.0019 C   0  0  1  0  0  0  0  0  0  0  0  0
    0.1181    5.8118   -3.3638 C   0  0  1  0  0  0  0  0  0  0  0  0
    1.2216    5.6482   -4.4278 C   0  0  1  0  0  0  0  0  0  0  0  0
   -1.8349   -4.9800   -8.2246 C   0  0  1  0  0  0  0  0  0  0  0  0
   -3.1068   -5.7735   -7.8667 C   0  0  2  0  0  0  0  0  0  0  0  0
   -0.7116   -1.0278   -9.7758 C   0  0  0  0  0  0  0  0  0  0  0  0
   -3.0062   -6.4646   -6.5042 C   0  0  1  0  0  0  0  0  0  0  0  0
   -1.6036   -6.3030   -5.9129 C   0  0  2  0  0  0  0  0  0  0  0  0
    2.4895    6.4710   -4.0994 C   0  0  0  0  0  0  0  0  0  0  0  0
   -1.4232   -7.0571   -4.5733 C   0  0  0  0  0  0  0  0  0  0  0  0
  3 26  1  0  0  0  0
  3 29  1  0  0  0  0
  6 30  1  0  0  0  0
  6 35  1  0  0  0  0
  7 33  1  0  0  0  0
  7 40  1  0  0  0  0
 12 38  1  0  0  0  0
 18 41  1  0  0  0  0
 19 42  1  0  0  0  0
 20 21  1  0  0  0  0
 20 23  1  0  0  0  0
 20  1  1  6  0  0  0
 21 22  1  0  0  0  0
 21  2  1  6  0  0  0
 22 14  1  6  0  0  0
 22 25  1  0  0  0  0
 23  5  1  1  0  0  0
 23 24  1  0  0  0  0
 24 15  1  6  0  0  0
 24 25  1  0  0  0  0
 26  1  1  6  0  0  0
 26 28  1  0  0  0  0
 27 28  1  0  0  0  0
 27 29  1  0  0  0  0
 27  4  1  1  0  0  0
 28  8  1  1  0  0  0
 29 38  1  6  0  0  0
 30 31  1  0  0  0  0
 30  2  1  6  0  0  0
 31 32  1  0  0  0  0
 31 16  1  6  0  0  0
 32  9  1  6  0  0  0
 32 34  1  0  0  0  0
 33 36  1  0  0  0  0
 33  4  1  1  0  0  0
 34 35  1  0  0  0  0
 34 10  1  6  0  0  0
 35 41  1  1  0  0  0
 36 37  1  0  0  0  0
 36 17  1  6  0  0  0
 37 11  1  6  0  0  0
 37 39  1  0  0  0  0
 39 40  1  0  0  0  0
 39 13  1  1  0  0  0
 40 42  1  1  0  0  0
M  END
