998
 OpenBabel10141418193D

 18 20  0  0  1  0  0  0  0  0999 V2000
    2.8948   -1.4473    0.0816 O   0  0  0  0  0  0  0  0  0  0  0  0
    4.5642    3.6028    3.5851 N   0  0  0  0  0  0  0  0  0  0  0  0
    2.4072    7.9351    0.7550 N   0  0  0  0  0  0  0  0  0  0  0  0
    1.2402   -0.0048   -0.4312 N   0  0  0  0  0  0  0  0  0  0  0  0
    2.6767    6.8345    1.6984 C   0  0  1  0  0  0  0  0  0  0  0  0
    2.7148    5.4326    1.0182 C   0  0  0  0  0  0  0  0  0  0  0  0
    4.0183    7.1473    2.4136 C   0  0  0  0  0  0  0  0  0  0  0  0
    3.3453    4.4084    1.9043 C   0  0  0  0  0  0  0  0  0  0  0  0
    4.3438    6.1236    3.5155 C   0  0  0  0  0  0  0  0  0  0  0  0
    4.0946    4.7488    3.0100 C   0  0  0  0  0  0  0  0  0  0  0  0
    3.3508    2.9881    1.8075 C   0  0  0  0  0  0  0  0  0  0  0  0
    4.1324    2.5100    2.8632 C   0  0  0  0  0  0  0  0  0  0  0  0
    2.7760    2.0606    0.9140 C   0  0  0  0  0  0  0  0  0  0  0  0
    4.3836    1.1481    3.0633 C   0  0  0  0  0  0  0  0  0  0  0  0
    2.9967    0.6875    1.1134 C   0  0  0  0  0  0  0  0  0  0  0  0
    1.0859    7.8617    0.1503 C   0  0  0  0  0  0  0  0  0  0  0  0
    3.8052    0.2454    2.1656 C   0  0  0  0  0  0  0  0  0  0  0  0
    2.4003   -0.3354    0.2137 C   0  0  0  0  0  0  0  0  0  0  0  0
  1 18  2  0  0  0  0
  2 10  1  0  0  0  0
  2 12  1  0  0  0  0
  3 16  1  0  0  0  0
  4 18  1  0  0  0  0
  5  3  1  6  0  0  0
  5  6  1  0  0  0  0
  5  7  1  0  0  0  0
  6  8  1  0  0  0  0
  7  9  1  0  0  0  0
  8 10  2  0  0  0  0
  8 11  1  0  0  0  0
  9 10  1  0  0  0  0
 11 12  2  0  0  0  0
 11 13  1  0  0  0  0
 12 14  1  0  0  0  0
 13 15  2  0  0  0  0
 14 17  2  0  0  0  0
 15 17  1  0  0  0  0
 15 18  1  0  0  0  0
M  END
