695
 OpenBabel10141417523D

 21 22  0  0  0  0  0  0  0  0999 V2000
    0.3676    0.9964   -0.1213 Cl  0  0  0  0  0  0  0  0  0  0  0  0
    1.7916    3.9565   -0.3650 S   0  0  0  0  0  0  0  0  0  0  0  0
    2.3074   -3.2545   -0.8476 O   0  0  0  0  0  0  0  0  0  0  0  0
    0.8839    4.0000    0.7427 O   0  0  0  0  0  0  0  0  0  0  0  0
    2.7003    5.0434   -0.6447 O   0  0  0  0  0  0  0  0  0  0  0  0
    6.7680    2.6817    0.0721 O   0  0  0  0  0  0  0  0  0  0  0  0
    7.1494    0.6560   -0.8064 O   0  0  0  0  0  0  0  0  0  0  0  0
    5.0143   -1.1002   -0.1381 N   0  0  0  0  0  0  0  0  0  0  0  0
    0.8772    3.8081   -1.7642 N   0  0  0  0  0  0  0  0  0  0  0  0
    4.2635    0.0711   -0.2308 C   0  0  0  0  0  0  0  0  0  0  0  0
    2.7058    2.4496   -0.3157 C   0  0  0  0  0  0  0  0  0  0  0  0
    4.8786    1.3418   -0.3229 C   0  0  0  0  0  0  0  0  0  0  0  0
    4.1010    2.5118   -0.3713 C   0  0  0  0  0  0  0  0  0  0  0  0
    4.4384   -2.4401   -0.0090 C   0  0  0  0  0  0  0  0  0  0  0  0
    2.8627    0.0547   -0.1105 C   0  0  0  0  0  0  0  0  0  0  0  0
    2.0787    1.2164   -0.1810 C   0  0  0  0  0  0  0  0  0  0  0  0
    3.6072   -2.9458   -1.1421 C   0  0  0  0  0  0  0  0  0  0  0  0
    6.3596    1.4808   -0.3933 C   0  0  0  0  0  0  0  0  0  0  0  0
    3.8539   -3.2016   -2.4752 C   0  0  0  0  0  0  0  0  0  0  0  0
    2.6417   -3.6941   -3.0205 C   0  0  0  0  0  0  0  0  0  0  0  0
    1.7304   -3.6995   -1.9917 C   0  0  0  0  0  0  0  0  0  0  0  0
  1 16  1  0  0  0  0
  2  4  2  0  0  0  0
  2  5  2  0  0  0  0
  2  9  1  0  0  0  0
  2 11  1  0  0  0  0
  3 17  1  0  0  0  0
  3 21  1  0  0  0  0
  6 18  1  0  0  0  0
  7 18  2  0  0  0  0
  8 10  1  0  0  0  0
  8 14  1  0  0  0  0
 10 12  1  0  0  0  0
 10 15  2  0  0  0  0
 11 13  1  0  0  0  0
 11 16  2  0  0  0  0
 12 13  2  0  0  0  0
 12 18  1  0  0  0  0
 14 17  1  0  0  0  0
 15 16  1  0  0  0  0
 17 19  2  0  0  0  0
 19 20  1  0  0  0  0
 20 21  2  0  0  0  0
M  END
