60714
 OpenBabel10141417533D

 29 28  0  0  1  0  0  0  0  0999 V2000
    0.9438   -2.7195    0.3925 Gd  0  1  0  0  0 15  0  0  0  0  0  0
    2.1706    2.3097   -0.3704 O   0  0  0  0  0  0  0  0  0  0  0  0
    7.3944   -6.0453   -2.8316 O   0  5  0  0  0  0  0  0  0  0  0  0
   -2.3171   -0.4662   -7.4124 O   0  5  0  0  0  0  0  0  0  0  0  0
    5.5826   -6.0702   -4.1036 O   0  0  0  0  0  0  0  0  0  0  0  0
   -1.2926   -2.3960   -7.0271 O   0  0  0  0  0  0  0  0  0  0  0  0
    0.5547   -5.4437    0.2508 O   0  5  0  0  0  0  0  0  0  0  0  0
    2.3017   -4.9120   -0.9857 O   0  0  0  0  0  0  0  0  0  0  0  0
    2.5457   -0.7446   -2.4398 N   0  0  0  0  0  0  0  0  0  0  0  0
   -0.1993   -1.8235   -4.6421 N   0  0  0  0  0  0  0  0  0  0  0  0
    4.1602   -4.1238   -2.8545 N   0  0  0  0  0  0  0  0  0  0  0  0
    0.9395   -4.4771   -3.4730 N   0  0  0  0  0  0  0  0  0  0  0  0
    3.6064   -1.6942   -2.8736 C   0  0  0  0  0  0  0  0  0  0  0  0
    1.5502   -0.4325   -3.5000 C   0  0  0  0  0  0  0  0  0  0  0  0
    0.3209   -1.3449   -3.3397 C   0  0  0  0  0  0  0  0  0  0  0  0
    3.5397   -3.0075   -2.0870 C   0  0  0  0  0  0  0  0  0  0  0  0
   -0.9552   -3.0956   -4.4762 C   0  0  0  0  0  0  0  0  0  0  0  0
    3.2967   -5.3371   -2.8816 C   0  0  0  0  0  0  0  0  0  0  0  0
   -0.0299   -4.3384   -4.5885 C   0  0  0  0  0  0  0  0  0  0  0  0
    2.1366   -5.2419   -3.9061 C   0  0  0  0  0  0  0  0  0  0  0  0
    2.9732    0.3663   -1.5620 C   0  0  0  0  0  0  0  0  0  0  0  0
    1.7685    1.2538   -1.2039 C   0  0  3  0  0  0  0  0  0  0  0  0
   -1.0135   -0.7864   -5.3144 C   0  0  0  0  0  0  0  0  0  0  0  0
    5.5232   -4.4730   -2.3707 C   0  0  0  0  0  0  0  0  0  0  0  0
    0.2729   -4.8837   -2.1893 C   0  0  0  0  0  0  0  0  0  0  0  0
    0.6832    0.4497   -0.4862 C   0  0  0  0  0  0  0  0  0  0  0  0
    6.1646   -5.5999   -3.1361 C   0  0  0  0  0  0  0  0  0  0  0  0
   -1.5486   -1.2664   -6.6448 C   0  0  0  0  0  0  0  0  0  0  0  0
    1.0939   -5.0796   -0.9244 C   0  0  0  0  0  0  0  0  0  0  0  0
  2 22  1  0  0  0  0
  3 27  1  0  0  0  0
  4 28  1  0  0  0  0
  5 27  2  0  0  0  0
  6 28  2  0  0  0  0
  7 29  1  0  0  0  0
  8 29  2  0  0  0  0
  9 13  1  0  0  0  0
  9 14  1  0  0  0  0
  9 21  1  0  0  0  0
 10 15  1  0  0  0  0
 10 17  1  0  0  0  0
 10 23  1  0  0  0  0
 11 16  1  0  0  0  0
 11 18  1  0  0  0  0
 11 24  1  0  0  0  0
 12 19  1  0  0  0  0
 12 20  1  0  0  0  0
 12 25  1  0  0  0  0
 13 16  1  0  0  0  0
 14 15  1  0  0  0  0
 17 19  1  0  0  0  0
 18 20  1  0  0  0  0
 21 22  1  0  0  0  0
 22 26  1  0  0  0  0
 23 28  1  0  0  0  0
 24 27  1  0  0  0  0
 25 29  1  0  0  0  0
M  CHG  4   1   3   3  -1   4  -1   7  -1
M  END
