60754
 OpenBabel10141418223D

 31 28  0  0  1  0  0  0  0  0999 V2000
    0.0231    2.1013    0.4008 Gd  0  1  0  0  0 15  0  0  0  0  0  0
    1.5144    2.8428   -0.9038 O   0  5  0  0  0  0  0  0  0  0  0  0
    3.5674    3.1611   -0.1040 O   0  0  0  0  0  0  0  0  0  0  0  0
    5.1357   -6.2727   -0.0289 O   0  0  0  0  0  0  0  0  0  0  0  0
    6.3888    6.8002   -3.6681 O   0  0  0  0  0  0  0  0  0  0  0  0
    4.6283   -4.9035   -4.2487 O   0  5  0  0  0  0  0  0  0  0  0  0
    9.7904    4.3697   -2.3303 O   0  5  0  0  0  0  0  0  0  0  0  0
    5.1752   -5.5344   -2.1927 O   0  0  0  0  0  0  0  0  0  0  0  0
    8.0628    5.4427   -3.2172 O   0  0  0  0  0  0  0  0  0  0  0  0
   -0.4173   -1.2995    1.2369 O   0  0  0  0  0  0  0  0  0  0  0  0
    4.5796    0.6835   -0.7285 N   0  0  0  0  0  0  0  0  0  0  0  0
    4.6075   -3.2282   -0.8832 N   0  0  0  0  0  0  0  0  0  0  0  0
    6.0590    4.0877   -1.9970 N   0  0  0  0  0  0  0  0  0  0  0  0
    7.9101    6.8685   -2.0192 N   0  0  0  0  0  0  0  0  0  0  0  0
    3.5562   -6.3047   -1.6230 N   0  0  0  0  0  0  0  0  0  0  0  0
    4.9672   -0.6914   -1.1354 C   0  0  0  0  0  0  0  0  0  0  0  0
    5.3996    1.6917   -1.4605 C   0  0  0  0  0  0  0  0  0  0  0  0
    4.1966   -1.8537   -0.4546 C   0  0  0  0  0  0  0  0  0  0  0  0
    5.1604    3.2007   -1.1876 C   0  0  0  0  0  0  0  0  0  0  0  0
    3.1705    1.0452   -1.0538 C   0  0  0  0  0  0  0  0  0  0  0  0
    3.8307   -4.2958   -0.1935 C   0  0  0  0  0  0  0  0  0  0  0  0
    5.8315    5.5372   -1.7371 C   0  0  0  0  0  0  0  0  0  0  0  0
    4.3910   -3.3151   -2.3518 C   0  0  0  0  0  0  0  0  0  0  0  0
    7.4685    3.7265   -1.7077 C   0  0  0  0  0  0  0  0  0  0  0  0
    2.7685    2.4198   -0.6518 C   0  0  0  0  0  0  0  0  0  0  0  0
    6.7450    6.4193   -2.5605 C   0  0  0  0  0  0  0  0  0  0  0  0
    4.2461   -5.6852   -0.6268 C   0  0  0  0  0  0  0  0  0  0  0  0
    4.7639   -4.6541   -2.9320 C   0  0  0  0  0  0  0  0  0  0  0  0
    8.4644    4.5619   -2.4734 C   0  0  0  0  0  0  0  0  0  0  0  0
    8.3796    6.4527   -0.7119 C   0  0  0  0  0  0  0  0  0  0  0  0
    2.4923   -5.6515   -2.3600 C   0  0  0  0  0  0  0  0  0  0  0  0
  2 25  1  0  0  0  0
  3 25  2  0  0  0  0
  4 27  2  0  0  0  0
  5 26  2  0  0  0  0
  6 28  1  0  0  0  0
  7 29  1  0  0  0  0
  8 28  2  0  0  0  0
  9 29  2  0  0  0  0
 11 16  1  0  0  0  0
 11 17  1  0  0  0  0
 11 20  1  0  0  0  0
 12 18  1  0  0  0  0
 12 21  1  0  0  0  0
 12 23  1  0  0  0  0
 13 19  1  0  0  0  0
 13 22  1  0  0  0  0
 13 24  1  0  0  0  0
 14 26  1  0  0  0  0
 14 30  1  0  0  0  0
 15 27  1  0  0  0  0
 15 31  1  0  0  0  0
 16 18  1  0  0  0  0
 17 19  1  0  0  0  0
 20 25  1  0  0  0  0
 21 27  1  0  0  0  0
 22 26  1  0  0  0  0
 23 28  1  0  0  0  0
 24 29  1  0  0  0  0
M  CHG  4   1   3   2  -1   6  -1   7  -1
M  END
