789
 OpenBabel10141419013D

 54 50  0  0  1  0  0  0  0  0999 V2000
    1.3353   -3.0284    0.6213 Gd  0  1  0  0  0 15  0  0  0  0  0  0
    1.2809   -0.8987    0.7304 O   0  0  0  0  0  0  0  0  0  0  0  0
    0.7080    0.4845   -1.2859 O   0  0  0  0  0  0  0  0  0  0  0  0
   -0.0879    1.0617    3.5230 O   0  0  0  0  0  0  0  0  0  0  0  0
   -0.0560   -2.3243   -3.4847 O   0  0  0  0  0  0  0  0  0  0  0  0
    0.2377    2.5601    0.9889 O   0  0  0  0  0  0  0  0  0  0  0  0
   -0.9019   -2.7535   -0.8193 O   0  0  0  0  0  0  0  0  0  0  0  0
    2.9211   -0.9232    3.1009 O   0  0  0  0  0  0  0  0  0  0  0  0
    2.8467   -0.2041   -2.7745 O   0  0  0  0  0  0  0  0  0  0  0  0
    3.4176    0.0320    5.5031 O   0  0  0  0  0  0  0  0  0  0  0  0
    4.1637   -2.0266   -4.3483 O   0  0  0  0  0  0  0  0  0  0  0  0
    2.3390   -1.5361   -3.0683 O   0  5  0  0  0  0  0  0  0  0  0  0
    4.2370   -0.5853   -2.6641 O   0  0  0  0  0  0  0  0  0  0  0  0
    2.3149   -0.3527    6.8725 O   0  0  0  0  0  0  0  0  0  0  0  0
    8.3363   -3.1009   -5.3619 O   0  0  0  0  0  0  0  0  0  0  0  0
    1.2686   -2.2644    6.4035 O   0  0  0  0  0  0  0  0  0  0  0  0
    9.1378   -1.1022   -4.8417 O   0  0  0  0  0  0  0  0  0  0  0  0
    3.3666   -4.6540    5.6463 O   0  5  0  0  0  0  0  0  0  0  0  0
   10.4474   -0.7933   -1.9197 O   0  5  0  0  0  0  0  0  0  0  0  0
    2.9913   -2.5713    6.3105 O   0  0  0  0  0  0  0  0  0  0  0  0
    9.4685   -2.1383   -3.3883 O   0  0  0  0  0  0  0  0  0  0  0  0
    4.2715   -1.1219    0.1282 N   0  0  0  0  0  0  0  0  0  0  0  0
    3.0110   -1.3451    3.8624 N   0  0  0  0  0  0  0  0  0  0  0  0
    6.8811   -1.7369   -2.6565 N   0  0  0  0  0  0  0  0  0  0  0  0
    3.3275    0.8450   -0.1100 N   0  0  0  0  0  0  0  0  0  0  0  0
    1.9285   -1.0394    0.8221 N   0  0  0  0  0  0  0  0  0  0  0  0
    0.5241    0.1514    1.2748 C   0  0  1  0  0  0  0  0  0  0  0  0
   -0.0063   -0.6647   -1.6656 C   0  0  1  0  0  0  0  0  0  0  0  0
    0.6247    0.0682    2.8715 C   0  0  1  0  0  0  0  0  0  0  0  0
    0.6121   -1.1697   -3.0389 C   0  0  1  0  0  0  0  0  0  0  0  0
    0.9711    1.4741    0.4781 C   0  0  2  0  0  0  0  0  0  0  0  0
   -0.1837   -1.6185   -0.3959 C   0  0  2  0  0  0  0  0  0  0  0  0
    2.0577    0.0856    3.5619 C   0  0  1  0  0  0  0  0  0  0  0  0
    2.1807   -1.3878   -3.1010 C   0  0  1  0  0  0  0  0  0  0  0  0
    4.2949   -1.4516    1.5918 C   0  0  0  0  0  0  0  0  0  0  0  0
    5.5313   -1.5708   -0.5180 C   0  0  0  0  0  0  0  0  0  0  0  0
    2.4598    1.9204    0.4172 C   0  0  0  0  0  0  0  0  0  0  0  0
    1.0915   -2.1754    0.3305 C   0  0  0  0  0  0  0  0  0  0  0  0
    3.0583   -1.0521    2.4150 C   0  0  0  0  0  0  0  0  0  0  0  0
    5.6143   -1.2827   -2.0196 C   0  0  0  0  0  0  0  0  0  0  0  0
    2.0936    0.0051    5.0653 C   0  0  0  0  0  0  0  0  0  0  0  0
    2.7741   -1.8781   -4.4374 C   0  0  0  0  0  0  0  0  0  0  0  0
    3.1810   -1.5622   -0.7917 C   0  0  0  0  0  0  0  0  0  0  0  0
    1.7678   -0.9091    4.5321 C   0  0  0  0  0  0  0  0  0  0  0  0
    6.9130   -1.4336   -4.1179 C   0  0  0  0  0  0  0  0  0  0  0  0
    3.2099   -2.8192    3.9816 C   0  0  0  0  0  0  0  0  0  0  0  0
    7.9742   -1.0252   -1.9485 C   0  0  0  0  0  0  0  0  0  0  0  0
    3.2785   -1.1676   -2.2218 C   0  0  0  0  0  0  0  0  0  0  0  0
    4.7405    1.2537   -0.1733 C   0  0  0  0  0  0  0  0  0  0  0  0
    3.1799   -1.3701    1.5372 C   0  0  0  0  0  0  0  0  0  0  0  0
    1.8083   -1.2468    5.9956 C   0  0  0  0  0  0  0  0  0  0  0  0
    8.1885   -1.8801   -4.8086 C   0  0  0  0  0  0  0  0  0  0  0  0
    3.1976   -3.3447    5.3881 C   0  0  0  0  0  0  0  0  0  0  0  0
    9.3492   -1.3587   -2.4581 C   0  0  0  0  0  0  0  0  0  0  0  0
 10 41  1  0  0  0  0
 11 42  1  0  0  0  0
 12 48  1  0  0  0  0
 13 48  2  0  0  0  0
 14 51  1  0  0  0  0
 15 52  1  0  0  0  0
 16 51  2  0  0  0  0
 17 52  2  0  0  0  0
 18 53  1  0  0  0  0
 19 54  1  0  0  0  0
 20 53  2  0  0  0  0
 21 54  2  0  0  0  0
 22 35  1  0  0  0  0
 22 36  1  0  0  0  0
 22 43  1  0  0  0  0
 23 39  1  0  0  0  0
 23 44  1  0  0  0  0
 23 46  1  0  0  0  0
 24 40  1  0  0  0  0
 24 45  1  0  0  0  0
 24 47  1  0  0  0  0
 25 37  1  0  0  0  0
 25 49  1  0  0  0  0
 26 38  1  0  0  0  0
 26 50  1  0  0  0  0
 27  2  1  6  0  0  0
 27 31  1  0  0  0  0
 28  3  1  1  0  0  0
 28 32  1  0  0  0  0
 29 27  1  0  0  0  0
 29  4  1  1  0  0  0
 30 28  1  0  0  0  0
 30  5  1  1  0  0  0
 31  6  1  1  0  0  0
 31 37  1  0  0  0  0
 32  7  1  6  0  0  0
 32 38  1  0  0  0  0
 33 41  1  1  0  0  0
 33 29  1  0  0  0  0
 33  8  1  0  0  0  0
 34 42  1  6  0  0  0
 34 30  1  0  0  0  0
 34  9  1  0  0  0  0
 35 39  1  0  0  0  0
 36 40  1  0  0  0  0
 43 48  1  0  0  0  0
 44 51  1  0  0  0  0
 45 52  1  0  0  0  0
 46 53  1  0  0  0  0
 47 54  1  0  0  0  0
M  CHG  4   1   3  12  -1  18  -1  19  -1
M  END
