
 OpenBabel10141418303D

 40 37  0  0  0  0  0  0  0  0999 V2000
   -0.3327    3.1742   -0.9217 Na  0  3  0  0  0 15  0  0  0  0  0  0
    1.4543   -2.2303   -1.1746 Gd  0  1  0  0  0 15  0  0  0  0  0  0
    2.2296    2.7164    2.8590 C   0  0  0  0  0  0  0  0  0  0  0  0
    2.1277    3.5602    3.9006 O   0  5  0  0  0  0  0  0  0  0  0  0
    2.3366    3.1602    1.7246 O   0  0  0  0  0  0  0  0  0  0  0  0
    2.2587    1.2408    3.0777 C   0  0  0  0  0  0  0  0  0  0  0  0
    7.1313   -2.0906    6.2505 O   0  5  0  0  0  0  0  0  0  0  0  0
    6.1281   -2.9794    6.1123 C   0  0  0  0  0  0  0  0  0  0  0  0
    6.3252   -4.4140    6.5218 C   0  0  0  0  0  0  0  0  0  0  0  0
    5.2920   -6.7229    6.7084 C   0  0  0  0  0  0  0  0  0  0  0  0
    5.1574   -5.3128    6.3266 N   0  0  0  0  0  0  0  0  0  0  0  0
    6.4809   -7.9881    8.4585 O   0  5  0  0  0  0  0  0  0  0  0  0
    6.1934   -6.7928    7.9039 C   0  0  0  0  0  0  0  0  0  0  0  0
    4.2977   -4.9797    5.1477 C   0  0  0  0  0  0  0  0  0  0  0  0
    4.2326   -3.4372    4.8380 C   0  0  0  0  0  0  0  0  0  0  0  0
    3.3930   -3.0032    3.6708 N   0  0  0  0  0  0  0  0  0  0  0  0
    3.2698   -1.5362    3.2957 C   0  0  0  0  0  0  0  0  0  0  0  0
    2.3999   -1.0659    2.0834 C   0  0  3  0  0  0  0  0  0  0  0  0
    2.3726    0.4302    1.8303 N   0  0  0  0  0  0  0  0  0  0  0  0
    1.5997    1.0555    0.7230 C   0  0  0  0  0  0  0  0  0  0  0  0
    1.6801    2.5568    0.6106 C   0  0  0  0  0  0  0  0  0  0  0  0
    1.0001    3.1838   -0.3775 O   0  5  0  0  0  0  0  0  0  0  0  0
    5.0324   -2.5998    5.7320 O   0  0  0  0  0  0  0  0  0  0  0  0
    6.6970   -5.7790    8.3565 O   0  0  0  0  0  0  0  0  0  0  0  0
    1.9640   -3.4352    3.8348 C   0  0  0  0  0  0  0  0  0  0  0  0
    0.9853   -3.0790    2.7492 C   0  0  0  0  0  0  0  0  0  0  0  0
   -0.1853   -3.4079    2.8347 O   0  0  0  0  0  0  0  0  0  0  0  0
    1.4634   -2.6391    1.5668 O   0  5  0  0  0  0  0  0  0  0  0  0
    2.4478    3.1843    1.2985 O   0  0  0  0  0  0  0  0  0  0  0  0
    0.9062   -1.4591    2.2455 C   0  0  0  0  0  0  0  0  0  0  0  0
   -0.1194   -1.1127    1.2050 C   0  0  0  0  0  0  0  0  0  0  0  0
   -0.4234   -1.9662    0.1327 C   0  0  0  0  0  0  0  0  0  0  0  0
   -1.3369   -1.5558   -0.8476 C   0  0  0  0  0  0  0  0  0  0  0  0
   -1.9202   -0.2835   -0.7804 C   0  0  0  0  0  0  0  0  0  0  0  0
   -1.6023    0.5685    0.2919 C   0  0  0  0  0  0  0  0  0  0  0  0
   -0.7163    0.1512    1.2751 C   0  0  0  0  0  0  0  0  0  0  0  0
   -2.7656    0.1064   -1.7719 O   0  0  0  0  0  0  0  0  0  0  0  0
   -2.9342    1.4172   -2.1717 C   0  0  0  0  0  0  0  0  0  0  0  0
   -1.9484    1.7449   -3.2745 C   0  0  0  0  0  0  0  0  0  0  0  0
   -1.7136   -1.3833    0.0451 Na  0  3  0  0  0 15  0  0  0  0  0  0
  3  4  1  0  0  0  0
  3  5  2  0  0  0  0
  3  6  1  0  0  0  0
  6 19  1  0  0  0  0
  7  8  1  0  0  0  0
  8  9  1  0  0  0  0
  8 23  2  0  0  0  0
  9 11  1  0  0  0  0
 10 11  1  0  0  0  0
 10 13  1  0  0  0  0
 11 14  1  0  0  0  0
 12 13  1  0  0  0  0
 13 24  2  0  0  0  0
 14 15  1  0  0  0  0
 15 16  1  0  0  0  0
 16 17  1  0  0  0  0
 16 25  1  0  0  0  0
 17 18  1  0  0  0  0
 18 19  1  0  0  0  0
 18 30  1  0  0  0  0
 19 20  1  0  0  0  0
 20 21  1  0  0  0  0
 21 22  1  0  0  0  0
 21 29  2  0  0  0  0
 25 26  1  0  0  0  0
 26 27  2  0  0  0  0
 26 28  1  0  0  0  0
 30 31  1  0  0  0  0
 31 32  2  0  0  0  0
 31 36  1  0  0  0  0
 32 33  1  0  0  0  0
 33 34  2  0  0  0  0
 34 35  1  0  0  0  0
 34 37  1  0  0  0  0
 35 36  2  0  0  0  0
 37 38  1  0  0  0  0
 38 39  1  0  0  0  0
M  CHG  8   1   1   2   3   4  -1   7  -1  12  -1  22  -1  28  -1  40   1
M  END
