538
 OpenBabel10141418343D

 36 34  0  0  1  0  0  0  0  0999 V2000
   -0.1464    0.5244   -2.1595 Gd  0  1  0  0  0 15  0  0  0  0  0  0
    1.2195   -2.3490    1.5254 O   0  5  0  0  0  0  0  0  0  0  0  0
    3.2611   -3.0482    1.0073 O   0  0  0  0  0  0  0  0  0  0  0  0
    5.4097    5.7932   -1.8875 O   0  0  0  0  0  0  0  0  0  0  0  0
    5.7486   -5.7330    5.3899 O   0  0  0  0  0  0  0  0  0  0  0  0
    4.8612    5.7798    2.4934 O   0  5  0  0  0  0  0  0  0  0  0  0
    9.3568   -4.0821    3.5703 O   0  5  0  0  0  0  0  0  0  0  0  0
    5.4016    5.7151    0.3419 O   0  0  0  0  0  0  0  0  0  0  0  0
    7.5241   -4.6992    4.6590 O   0  0  0  0  0  0  0  0  0  0  0  0
    2.1054    5.2768    2.6440 O   0  0  0  0  0  0  0  0  0  0  0  0
    9.1406   -5.1636    0.9462 O   0  0  0  0  0  0  0  0  0  0  0  0
    4.4494   -0.5735    0.8323 N   0  0  0  0  0  0  0  0  0  0  0  0
    4.6823    3.1717   -0.1928 N   0  0  0  0  0  0  0  0  0  0  0  0
    5.6796   -3.5568    3.0556 N   0  0  0  0  0  0  0  0  0  0  0  0
    3.8530    6.3919   -0.3952 N   0  0  0  0  0  0  0  0  0  0  0  0
    7.2676   -6.3551    3.8693 N   0  0  0  0  0  0  0  0  0  0  0  0
    4.9023    0.8389    0.8085 C   0  0  0  0  0  0  0  0  0  0  0  0
    5.2178   -1.3406    1.8532 C   0  0  0  0  0  0  0  0  0  0  0  0
    4.1918    1.7587   -0.2062 C   0  0  0  0  0  0  0  0  0  0  0  0
    4.8695   -2.8505    2.0137 C   0  0  0  0  0  0  0  0  0  0  0  0
    3.0054   -0.6919    1.1857 C   0  0  0  0  0  0  0  0  0  0  0  0
    3.9753    4.0333   -1.1844 C   0  0  0  0  0  0  0  0  0  0  0  0
    5.3162   -4.9934    3.1766 C   0  0  0  0  0  0  0  0  0  0  0  0
    4.4933    3.7042    1.1783 C   0  0  0  0  0  0  0  0  0  0  0  0
    7.1179   -3.4179    2.7171 C   0  0  0  0  0  0  0  0  0  0  0  0
    2.5093   -2.1109    1.2199 C   0  0  0  0  0  0  0  0  0  0  0  0
    4.4785    5.4614   -1.1636 C   0  0  0  0  0  0  0  0  0  0  0  0
    6.1397   -5.6933    4.2297 C   0  0  0  0  0  0  0  0  0  0  0  0
    4.9548    5.1312    1.3161 C   0  0  0  0  0  0  0  0  0  0  0  0
    8.0172   -4.1014    3.7158 C   0  0  0  0  0  0  0  0  0  0  0  0
    2.7483    6.0219    0.4718 C   0  0  0  0  0  0  0  0  0  0  0  0
    7.7488   -6.3195    2.5015 C   0  0  0  0  0  0  0  0  0  0  0  0
    3.2302    5.6210    1.8639 C   0  0  0  0  0  0  0  0  0  0  0  0
    8.7044   -5.1515    2.2874 C   0  0  0  0  0  0  0  0  0  0  0  0
    2.5225    4.9021    3.9362 C   0  0  0  0  0  0  0  0  0  0  0  0
   10.0251   -4.0888    0.7340 C   0  0  0  0  0  0  0  0  0  0  0  0
  2 26  1  0  0  0  0
  3 26  2  0  0  0  0
  4 27  2  0  0  0  0
  5 28  2  0  0  0  0
  6 29  1  0  0  0  0
  7 30  1  0  0  0  0
  8 29  2  0  0  0  0
  9 30  2  0  0  0  0
 10 33  1  0  0  0  0
 10 35  1  0  0  0  0
 11 34  1  0  0  0  0
 11 36  1  0  0  0  0
 12 17  1  0  0  0  0
 12 18  1  0  0  0  0
 12 21  1  0  0  0  0
 13 19  1  0  0  0  0
 13 22  1  0  0  0  0
 13 24  1  0  0  0  0
 14 20  1  0  0  0  0
 14 23  1  0  0  0  0
 14 25  1  0  0  0  0
 15 27  1  0  0  0  0
 15 31  1  0  0  0  0
 16 28  1  0  0  0  0
 16 32  1  0  0  0  0
 17 19  1  0  0  0  0
 18 20  1  0  0  0  0
 21 26  1  0  0  0  0
 22 27  1  0  0  0  0
 23 28  1  0  0  0  0
 24 29  1  0  0  0  0
 25 30  1  0  0  0  0
 31 33  1  0  0  0  0
 32 34  1  0  0  0  0
M  CHG  4   1   3   2  -1   6  -1   7  -1
M  END
