138068-37-8.mol
 OpenBabel10141418233D

 32 31  0  0  0  0  0  0  0  0999 V2000
   -2.4485   -0.9195    0.0734 N   0  0  0  0  0  0  0  0  0  0  0  0
   -3.7874   -1.4147    0.5417 C   0  0  1  0  0  0  0  0  0  0  0  0
   -2.3962    0.4130   -0.6050 C   0  0  0  0  0  0  0  0  0  0  0  0
   -1.4490   -1.8675   -0.5061 C   0  0  0  0  0  0  0  0  0  0  0  0
   -3.6779   -2.8375    1.2390 C   0  0  1  0  0  0  0  0  0  0  0  0
   -4.4236   -0.3764    1.5240 C   0  0  0  0  0  0  0  0  0  0  0  0
   -1.6665    1.4151    0.2972 C   0  0  0  0  0  0  0  0  0  0  0  0
   -0.2643   -2.0661    0.4578 C   0  0  0  0  0  0  0  0  0  0  0  0
   -4.9842   -3.4792    1.7756 C   0  0  0  0  0  0  0  0  0  0  0  0
   -3.0979   -3.7768    0.3739 O   0  0  0  0  0  0  0  0  0  0  0  0
   -5.6775   -0.7971    1.9883 O   0  0  0  0  0  0  0  0  0  0  0  0
   -0.9810    2.4910   -0.4622 N   0  0  0  0  0  0  0  0  0  0  0  0
    0.9962   -2.2912   -0.2905 N   0  0  0  0  0  0  0  0  0  0  0  0
   -4.7692   -4.7313    2.3699 O   0  0  0  0  0  0  0  0  0  0  0  0
    0.3080    2.8787    0.1806 C   0  0  0  0  0  0  0  0  0  0  0  0
   -1.8549    3.6793   -0.6427 C   0  0  0  0  0  0  0  0  0  0  0  0
    2.1874   -1.8306    0.4777 C   0  0  0  0  0  0  0  0  0  0  0  0
    1.1084   -3.7048   -0.7154 C   0  0  0  0  0  0  0  0  0  0  0  0
    1.4683    1.8813   -0.0976 C   0  0  0  0  0  0  0  0  0  0  0  0
   -1.1931    4.7940   -1.4099 C   0  0  0  0  0  0  0  0  0  0  0  0
    2.5135   -0.3260    0.2313 C   0  0  0  0  0  0  0  0  0  0  0  0
    2.3813   -3.9715   -1.4812 C   0  0  0  0  0  0  0  0  0  0  0  0
    1.4597    0.6153    0.6887 N   0  0  0  0  0  0  0  0  0  0  0  0
   -1.7796    5.8376   -1.6432 O   0  0  0  0  0  0  0  0  0  0  0  0
    0.0451    4.6078   -1.9044 O   0  5  0  0  0  0  0  0  0  0  0  0
    2.6364   -5.0866   -1.9094 O   0  0  0  0  0  0  0  0  0  0  0  0
    3.2597   -2.9698   -1.6762 O   0  5  0  0  0  0  0  0  0  0  0  0
    1.3998    0.7504    2.1800 C   0  0  0  0  0  0  0  0  0  0  0  0
    1.3889   -0.5092    3.0232 C   0  0  0  0  0  0  0  0  0  0  0  0
    1.3429   -0.4791    4.2400 O   0  0  0  0  0  0  0  0  0  0  0  0
    1.4176   -1.7024    2.3988 O   0  5  0  0  0  0  0  0  0  0  0  0
    0.5658   -0.0735   -2.6163 Gd  0  1  0  0  0 15  0  0  0  0  0  0
  1  3  1  0  0  0  0
  1  4  1  0  0  0  0
  2  1  1  1  0  0  0
  2  5  1  0  0  0  0
  2  6  1  0  0  0  0
  3  7  1  0  0  0  0
  4  8  1  0  0  0  0
  5  9  1  6  0  0  0
  5 10  1  0  0  0  0
  6 11  1  0  0  0  0
  7 12  1  0  0  0  0
  8 13  1  0  0  0  0
  9 14  1  0  0  0  0
 12 15  1  0  0  0  0
 12 16  1  0  0  0  0
 13 17  1  0  0  0  0
 13 18  1  0  0  0  0
 15 19  1  0  0  0  0
 16 20  1  0  0  0  0
 17 21  1  0  0  0  0
 18 22  1  0  0  0  0
 19 23  1  0  0  0  0
 20 24  2  0  0  0  0
 20 25  1  0  0  0  0
 21 23  1  0  0  0  0
 22 26  2  0  0  0  0
 22 27  1  0  0  0  0
 23 28  1  0  0  0  0
 28 29  1  0  0  0  0
 29 30  2  0  0  0  0
 29 31  1  0  0  0  0
M  CHG  4  25  -1  27  -1  31  -1  32   3
M  END
