
 OpenBabel10141419223D

 56 53  0  0  0  0  0  0  0  0999 V2000
   -1.7476    3.3990   -2.4777 C   0  0  0  0  0  0  0  0  0  0  0  0
   -1.8554    3.1195   -3.9847 C   0  0  0  0  0  0  0  0  0  0  0  0
   -2.6480    1.8253   -4.4311 C   0  0  0  0  0  0  0  0  0  0  0  0
   -1.9589    0.6642   -3.6338 C   0  0  0  0  0  0  0  0  0  0  0  0
   -1.9539    0.8568   -2.1003 C   0  0  0  0  0  0  0  0  0  0  0  0
   -1.2576    2.1666   -1.6596 C   0  0  0  0  0  0  0  0  0  0  0  0
   -1.4526    2.3247   -0.2473 O   0  0  0  0  0  0  0  0  0  0  0  0
   -0.6959    3.7759    0.3132 P   0  0  3  0  0  0  0  0  0  0  0  0
   -2.0244    4.4761    0.0197 O   0  0  0  0  0  0  0  0  0  0  0  0
   -1.2475    3.4464    1.9322 O   0  5  0  0  0  0  0  0  0  0  0  0
    0.0608    5.2272    0.8738 O   0  0  0  0  0  0  0  0  0  0  0  0
   -0.5757    6.3586    0.4404 C   0  0  0  0  0  0  0  0  0  0  0  0
    0.1454    7.6358    0.9729 C   0  0  3  0  0  0  0  0  0  0  0  0
   -0.6099    8.9681    0.4585 C   0  0  0  0  0  0  0  0  0  0  0  0
   -0.1539   10.3933    0.8052 N   0  0  0  0  0  0  0  0  0  0  0  0
   -0.9455   11.5303    0.2619 C   0  0  0  0  0  0  0  0  0  0  0  0
   -0.4379   12.9522    0.6452 C   0  0  0  0  0  0  0  0  0  0  0  0
   -1.2960   14.0326    0.0538 N   0  0  0  0  0  0  0  0  0  0  0  0
   -0.9122   15.4489    0.3491 C   0  0  0  0  0  0  0  0  0  0  0  0
   -1.7733   16.5789   -0.2437 C   0  0  0  0  0  0  0  0  0  0  0  0
   -1.5396   17.7646   -0.0568 O   0  0  0  0  0  0  0  0  0  0  0  0
   -2.8744   16.2586   -0.9398 O   0  5  0  0  0  0  0  0  0  0  0  0
   -1.6609   13.6800   -1.3678 C   0  0  0  0  0  0  0  0  0  0  0  0
   -2.5346   14.6514   -2.1551 C   0  0  0  0  0  0  0  0  0  0  0  0
   -2.8689   14.4408   -3.2998 O   0  0  0  0  0  0  0  0  0  0  0  0
   -2.8962   15.8172   -1.5730 O   0  5  0  0  0  0  0  0  0  0  0  0
   -0.2291   10.4785    2.3037 C   0  0  0  0  0  0  0  0  0  0  0  0
    0.1690   11.7950    2.9574 C   0  0  0  0  0  0  0  0  0  0  0  0
    0.1360   11.9509    4.1682 O   0  0  0  0  0  0  0  0  0  0  0  0
    0.5820   12.8117    2.1758 O   0  5  0  0  0  0  0  0  0  0  0  0
    0.2296    7.4659    2.4890 N   0  0  0  0  0  0  0  0  0  0  0  0
    0.9171    8.6582    3.1124 C   0  0  0  0  0  0  0  0  0  0  0  0
    1.0544    8.5932    4.6188 C   0  0  0  0  0  0  0  0  0  0  0  0
    1.5893    9.4929    5.2455 O   0  0  0  0  0  0  0  0  0  0  0  0
    0.5609    7.5280    5.2805 O   0  5  0  0  0  0  0  0  0  0  0  0
   -1.1002    7.3172    3.1471 C   0  0  0  0  0  0  0  0  0  0  0  0
   -1.0313    7.1477    4.6528 C   0  0  0  0  0  0  0  0  0  0  0  0
   -2.0428    7.0163    5.3253 O   0  0  0  0  0  0  0  0  0  0  0  0
    0.1694    7.1684    5.2626 O   0  5  0  0  0  0  0  0  0  0  0  0
   -4.2101    1.8281   -4.1432 C   0  0  0  0  0  0  0  0  0  0  0  0
   -5.1526    2.3208   -5.0805 C   0  0  0  0  0  0  0  0  0  0  0  0
   -6.5176    2.3709   -4.8060 C   0  0  0  0  0  0  0  0  0  0  0  0
   -7.0021    1.9462   -3.5803 C   0  0  0  0  0  0  0  0  0  0  0  0
   -6.1225    1.4440   -2.6319 C   0  0  0  0  0  0  0  0  0  0  0  0
   -4.7527    1.3668   -2.9042 C   0  0  0  0  0  0  0  0  0  0  0  0
   -2.4052    1.6018   -5.9691 C   0  0  0  0  0  0  0  0  0  0  0  0
   -1.3222    0.8159   -6.4611 C   0  0  0  0  0  0  0  0  0  0  0  0
   -1.0861    0.6898   -7.8322 C   0  0  0  0  0  0  0  0  0  0  0  0
   -1.9099    1.3325   -8.7495 C   0  0  0  0  0  0  0  0  0  0  0  0
   -2.9855    2.0955   -8.3016 C   0  0  0  0  0  0  0  0  0  0  0  0
   -3.2394    2.2267   -6.9317 C   0  0  0  0  0  0  0  0  0  0  0  0
    4.0246   -0.2327   -2.1172 O   0  0  0  0  0  0  0  0  0  0  0  0
   -1.7478    1.6407   -2.7941 Na  0  3  0  0  0 15  0  0  0  0  0  0
    1.0067   -2.1840    3.1082 Na  0  3  0  0  0 15  0  0  0  0  0  0
   -0.5762   -0.3557    3.2461 Na  0  3  0  0  0 15  0  0  0  0  0  0
    0.8590    1.5359    3.4108 Gd  0  1  0  0  0 15  0  0  0  0  0  0
  1  2  1  0  0  0  0
  1  6  1  0  0  0  0
  2  3  1  0  0  0  0
  3  4  1  0  0  0  0
  3 40  1  0  0  0  0
  3 46  1  0  0  0  0
  4  5  1  0  0  0  0
  5  6  1  0  0  0  0
  6  7  1  0  0  0  0
  7  8  1  0  0  0  0
  8  9  2  0  0  0  0
  8 10  1  0  0  0  0
  8 11  1  0  0  0  0
 11 12  1  0  0  0  0
 12 13  1  0  0  0  0
 13 14  1  0  0  0  0
 13 31  1  0  0  0  0
 14 15  1  0  0  0  0
 15 16  1  0  0  0  0
 15 27  1  0  0  0  0
 16 17  1  0  0  0  0
 17 18  1  0  0  0  0
 18 19  1  0  0  0  0
 18 23  1  0  0  0  0
 19 20  1  0  0  0  0
 20 21  2  0  0  0  0
 20 22  1  0  0  0  0
 23 24  1  0  0  0  0
 24 25  2  0  0  0  0
 24 26  1  0  0  0  0
 27 28  1  0  0  0  0
 28 29  2  0  0  0  0
 28 30  1  0  0  0  0
 31 32  1  0  0  0  0
 31 36  1  0  0  0  0
 32 33  1  0  0  0  0
 33 34  2  0  0  0  0
 33 35  1  0  0  0  0
 36 37  1  0  0  0  0
 37 38  2  0  0  0  0
 37 39  1  0  0  0  0
 40 41  2  0  0  0  0
 40 45  1  0  0  0  0
 41 42  1  0  0  0  0
 42 43  2  0  0  0  0
 43 44  1  0  0  0  0
 44 45  2  0  0  0  0
 46 47  2  0  0  0  0
 46 51  1  0  0  0  0
 47 48  1  0  0  0  0
 48 49  2  0  0  0  0
 49 50  1  0  0  0  0
 50 51  2  0  0  0  0
M  CHG  8  10  -1  22  -1  26  -1  30  -1  35  -1  39  -1  53   1  54   1
M  CHG  2  55   1  56   3
M  END
