743
 OpenBabel10141419043D

 63 60  0  0  1  0  0  0  0  0999 V2000
    3.5312    2.0213    2.2757 Gd  0  1  0  0  0 15  0  0  0  0  0  0
    1.3172    0.4788   -0.8238 O   0  0  0  0  0  0  0  0  0  0  0  0
    0.2761    0.6039    1.7759 O   0  0  0  0  0  0  0  0  0  0  0  0
    2.8209    2.1838   -2.1978 O   0  0  0  0  0  0  0  0  0  0  0  0
    1.0879    3.2094   -3.1748 O   0  0  0  0  0  0  0  0  0  0  0  0
    0.3413   -0.4016    5.2445 O   0  0  0  0  0  0  0  0  0  0  0  0
    0.7497    0.0065   -4.4497 O   0  0  0  0  0  0  0  0  0  0  0  0
   -0.2681    2.1375    5.0350 O   0  0  0  0  0  0  0  0  0  0  0  0
    3.5467    2.8576   -0.4505 O   0  0  0  0  0  0  0  0  0  0  0  0
    2.5745   -0.7595    2.3512 O   0  0  0  0  0  0  0  0  0  0  0  0
    4.4229    5.1624   -1.3749 O   0  0  0  0  0  0  0  0  0  0  0  0
    4.4116   -1.5961    4.1696 O   0  0  0  0  0  0  0  0  0  0  0  0
    3.0364    2.0896   -4.9159 O   0  5  0  0  0  0  0  0  0  0  0  0
    1.6662    3.1193   -6.3039 O   0  0  0  0  0  0  0  0  0  0  0  0
   -1.7356    5.6323   -2.1491 O   0  0  0  0  0  0  0  0  0  0  0  0
   -1.6772    3.4754   -1.6218 O   0  0  0  0  0  0  0  0  0  0  0  0
   -0.0765    2.2848  -10.8835 O   0  5  0  0  0  0  0  0  0  0  0  0
   -2.1771    1.7134  -10.4608 O   0  0  0  0  0  0  0  0  0  0  0  0
   -6.0120    3.4573  -14.2683 O   0  0  0  0  0  0  0  0  0  0  0  0
   -7.3177    2.1078  -13.0864 O   0  0  0  0  0  0  0  0  0  0  0  0
   -8.6614    3.3914  -10.4728 O   0  5  0  0  0  0  0  0  0  0  0  0
   -7.3787    3.7068  -12.2556 O   0  0  0  0  0  0  0  0  0  0  0  0
   -2.4658    2.9594   -8.0217 N   0  0  0  0  0  0  0  0  0  0  0  0
   -0.4588    3.6240   -4.6608 N   0  0  0  0  0  0  0  0  0  0  0  0
   -4.9595    3.0080  -11.1491 N   0  0  0  0  0  0  0  0  0  0  0  0
    2.7048   -2.6775   -2.1981 N   0  0  0  0  0  0  0  0  0  0  0  0
    2.0961    2.5316    2.1596 N   0  0  0  0  0  0  0  0  0  0  0  0
   -2.2318    3.7610   -6.7615 C   0  0  0  0  0  0  0  0  0  0  0  0
   -1.0972    3.2193   -5.9616 C   0  0  0  0  0  0  0  0  0  0  0  0
   -3.5885    3.3776   -8.9544 C   0  0  0  0  0  0  0  0  0  0  0  0
    0.7674    2.7718   -4.1162 C   0  0  3  0  0  0  0  0  0  0  0  0
   -3.8382    2.5460  -10.2707 C   0  0  0  0  0  0  0  0  0  0  0  0
    0.9232    0.9879   -2.0884 C   0  0  1  0  0  0  0  0  0  0  0  0
   -0.1120    0.6402    3.1279 C   0  0  1  0  0  0  0  0  0  0  0  0
    1.4425    2.6144   -1.9458 C   0  0  1  0  0  0  0  0  0  0  0  0
    0.7102   -0.4199    3.8991 C   0  0  1  0  0  0  0  0  0  0  0  0
    1.1164   -0.3860   -3.1514 C   0  0  2  0  0  0  0  0  0  0  0  0
    0.1166    2.0964    3.6898 C   0  0  2  0  0  0  0  0  0  0  0  0
   -1.8246    3.8789   -3.9467 C   0  0  0  0  0  0  0  0  0  0  0  0
   -1.1853    3.0338   -8.7798 C   0  0  0  0  0  0  0  0  0  0  0  0
    1.6669    3.0390   -2.6467 C   0  0  0  0  0  0  0  0  0  0  0  0
    2.9599    3.1940   -1.6813 C   0  0  1  0  0  0  0  0  0  0  0  0
    2.2797   -0.5772    3.7098 C   0  0  1  0  0  0  0  0  0  0  0  0
    2.0697   -1.8510   -3.2866 C   0  0  0  0  0  0  0  0  0  0  0  0
    1.5876    2.5377    3.5358 C   0  0  0  0  0  0  0  0  0  0  0  0
    1.8919    2.7557   -5.1597 C   0  0  0  0  0  0  0  0  0  0  0  0
   -5.0825    2.1436  -12.3428 C   0  0  0  0  0  0  0  0  0  0  0  0
   -6.2183    2.9564  -10.3466 C   0  0  0  0  0  0  0  0  0  0  0  0
    3.1178    4.7348   -1.5999 C   0  0  0  0  0  0  0  0  0  0  0  0
    3.0545   -1.6379    4.4915 C   0  0  0  0  0  0  0  0  0  0  0  0
   -1.7783    4.3407   -2.5028 C   0  0  0  0  0  0  0  0  0  0  0  0
   -1.1692    2.2983  -10.0965 C   0  0  0  0  0  0  0  0  0  0  0  0
    3.8476    1.9948   -1.1128 C   0  0  0  0  0  0  0  0  0  0  0  0
   -6.2038    2.5717  -13.2619 C   0  0  0  0  0  0  0  0  0  0  0  0
   -7.4598    3.3911  -11.0777 C   0  0  0  0  0  0  0  0  0  0  0  0
    3.4509   -3.8782   -2.7314 C   0  0  0  0  0  0  0  0  0  0  0  0
    3.5093    2.9715    2.1445 C   0  0  0  0  0  0  0  0  0  0  0  0
    4.8509    0.7783   -1.2898 C   0  0  0  0  0  0  0  0  0  0  0  0
    6.0843    0.9211   -1.9693 C   0  0  0  0  0  0  0  0  0  0  0  0
    4.5363   -0.5170   -0.8126 C   0  0  0  0  0  0  0  0  0  0  0  0
    6.8961   -0.1967   -2.2467 C   0  0  0  0  0  0  0  0  0  0  0  0
    5.3211   -1.6349   -1.1348 C   0  0  0  0  0  0  0  0  0  0  0  0
    6.4947   -1.4757   -1.8618 C   0  0  0  0  0  0  0  0  0  0  0  0
  4 41  1  0  0  0  0
  4 53  1  0  0  0  0
 11 49  1  0  0  0  0
 12 50  1  0  0  0  0
 13 46  1  0  0  0  0
 14 46  2  0  0  0  0
 15 51  1  0  0  0  0
 16 51  2  0  0  0  0
 17 52  1  0  0  0  0
 18 52  2  0  0  0  0
 19 54  1  0  0  0  0
 20 54  2  0  0  0  0
 21 55  1  0  0  0  0
 22 55  2  0  0  0  0
 23 28  1  0  0  0  0
 23 30  1  0  0  0  0
 23 40  1  0  0  0  0
 24 29  1  0  0  0  0
 24 31  1  0  0  0  0
 24 39  1  0  0  0  0
 25 32  1  0  0  0  0
 25 47  1  0  0  0  0
 25 48  1  0  0  0  0
 26 44  1  0  0  0  0
 26 56  1  0  0  0  0
 27 45  1  0  0  0  0
 27 57  1  0  0  0  0
 28 29  1  0  0  0  0
 30 32  1  0  0  0  0
 31 41  1  0  0  0  0
 31 46  1  0  0  0  0
 33  2  1  1  0  0  0
 33 37  1  0  0  0  0
 34  3  1  6  0  0  0
 34 38  1  0  0  0  0
 35 33  1  0  0  0  0
 35  5  1  6  0  0  0
 36 34  1  0  0  0  0
 36  6  1  1  0  0  0
 37  7  1  6  0  0  0
 37 44  1  0  0  0  0
 38  8  1  1  0  0  0
 38 45  1  0  0  0  0
 39 51  1  0  0  0  0
 40 52  1  0  0  0  0
 42 49  1  1  0  0  0
 42 35  1  0  0  0  0
 42  9  1  0  0  0  0
 43 50  1  1  0  0  0
 43 36  1  0  0  0  0
 43 10  1  0  0  0  0
 47 54  1  0  0  0  0
 48 55  1  0  0  0  0
 53 58  1  0  0  0  0
 58 59  2  0  0  0  0
 58 60  1  0  0  0  0
 59 61  1  0  0  0  0
 60 62  2  0  0  0  0
 61 63  2  0  0  0  0
 62 63  1  0  0  0  0
M  CHG  4   1   3  13  -1  17  -1  21  -1
M  END
