674
 OpenBabel10141417533D

 21 24  0  0  1  0  0  0  0  0999 V2000
    4.2591    0.0787    3.8777 O   0  0  0  0  0  0  0  0  0  0  0  0
    3.8062    4.3802    6.0726 O   0  0  0  0  0  0  0  0  0  0  0  0
    4.5400   -2.4826    2.7899 O   0  0  0  0  0  0  0  0  0  0  0  0
   -0.7175    0.6423    3.8681 N   0  0  0  0  0  0  0  0  0  0  0  0
    2.3088    0.9959    4.9954 C   0  0  1  0  0  0  0  0  0  0  0  0
    3.8590    0.9286    4.9568 C   0  0  2  0  0  0  0  0  0  0  0  0
    2.1066   -0.4255    4.5830 C   0  0  0  0  0  0  0  0  0  0  0  0
    1.5844    1.8730    3.9474 C   0  0  0  0  0  0  0  0  0  0  0  0
    4.4615    2.3201    5.0041 C   0  0  0  0  0  0  0  0  0  0  0  0
    1.9941    1.4734    6.3927 C   0  0  0  0  0  0  0  0  0  0  0  0
    3.2674   -0.8923    3.9492 C   0  0  0  0  0  0  0  0  0  0  0  0
    0.0418    1.8798    4.0948 C   0  0  0  0  0  0  0  0  0  0  0  0
    0.9251   -1.1424    4.4883 C   0  0  0  0  0  0  0  0  0  0  0  0
    4.0150    2.9970    6.3198 C   0  0  2  0  0  0  0  0  0  0  0  0
   -0.3968   -0.4750    4.7717 C   0  0  0  0  0  0  0  0  0  0  0  0
    2.7636    2.4237    6.9636 C   0  0  0  0  0  0  0  0  0  0  0  0
    3.3472   -2.1435    3.3574 C   0  0  0  0  0  0  0  0  0  0  0  0
    0.9932   -2.4304    3.9331 C   0  0  0  0  0  0  0  0  0  0  0  0
    2.1957   -2.9332    3.3951 C   0  0  0  0  0  0  0  0  0  0  0  0
   -0.7536    0.2554    2.4607 C   0  0  0  0  0  0  0  0  0  0  0  0
    4.6086   -3.7410    2.1350 C   0  0  0  0  0  0  0  0  0  0  0  0
  1 11  1  0  0  0  0
  3 21  1  0  0  0  0
  3 17  1  0  0  0  0
  4 12  1  0  0  0  0
  4 15  1  0  0  0  0
  4 20  1  0  0  0  0
  5  6  1  0  0  0  0
  5  7  1  1  0  0  0
  5  8  1  0  0  0  0
  5 10  1  0  0  0  0
  6  1  1  6  0  0  0
  6  9  1  0  0  0  0
  7 11  1  0  0  0  0
  7 13  2  0  0  0  0
  8 12  1  0  0  0  0
  9 14  1  0  0  0  0
 10 16  2  0  0  0  0
 11 17  2  0  0  0  0
 13 15  1  0  0  0  0
 13 18  1  0  0  0  0
 14 16  1  0  0  0  0
 14  2  1  6  0  0  0
 17 19  1  0  0  0  0
 18 19  2  0  0  0  0
M  END
