483
 OpenBabel10141417533D

 39 36  0  0  0  0  0  0  0  0999 V2000
    0.8338   -0.5616    0.6997 O   0  0  0  0  0  0  0  0  0  0  0  0
    1.9232    2.2165    0.1537 O   0  0  0  0  0  0  0  0  0  0  0  0
    2.5370   -2.7429    0.0016 O   0  0  0  0  0  0  0  0  0  0  0  0
   -2.7449    1.0344    0.2125 N   0  3  0  0  0  0  0  0  0  0  0  0
    1.5366    4.6476   -2.5594 N   0  3  0  0  0  0  0  0  0  0  0  0
    5.2821   -5.4661    0.5040 N   0  3  0  0  0  0  0  0  0  0  0  0
   -1.7404   -0.0084    0.7007 C   0  0  0  0  0  0  0  0  0  0  0  0
    2.5551    4.3802   -1.4487 C   0  0  0  0  0  0  0  0  0  0  0  0
    4.4415   -4.2547    0.9265 C   0  0  0  0  0  0  0  0  0  0  0  0
   -0.2036    0.2527    0.3523 C   0  0  0  0  0  0  0  0  0  0  0  0
   -4.1710    0.6230    0.6331 C   0  0  0  0  0  0  0  0  0  0  0  0
   -2.2322    2.4616    0.5117 C   0  0  0  0  0  0  0  0  0  0  0  0
    2.3389    3.5834    0.0019 C   0  0  0  0  0  0  0  0  0  0  0  0
    3.4066   -3.8113   -0.1567 C   0  0  0  0  0  0  0  0  0  0  0  0
    0.9253    3.3608   -3.1774 C   0  0  0  0  0  0  0  0  0  0  0  0
    0.7185    5.8585   -2.1044 C   0  0  0  0  0  0  0  0  0  0  0  0
    4.4116   -6.6596    0.2262 C   0  0  0  0  0  0  0  0  0  0  0  0
    6.1920   -5.1751   -0.6801 C   0  0  0  0  0  0  0  0  0  0  0  0
    2.1553   -0.3091    0.3837 C   0  0  0  0  0  0  0  0  0  0  0  0
    2.7269    1.0498    0.2269 C   0  0  0  0  0  0  0  0  0  0  0  0
    3.0345   -1.4581    0.2128 C   0  0  0  0  0  0  0  0  0  0  0  0
   -4.7558   -0.7324    0.1310 C   0  0  0  0  0  0  0  0  0  0  0  0
   -1.8939    3.0776    1.9138 C   0  0  0  0  0  0  0  0  0  0  0  0
    0.1464    2.3863   -2.2762 C   0  0  0  0  0  0  0  0  0  0  0  0
   -0.4719    6.5366   -2.9084 C   0  0  0  0  0  0  0  0  0  0  0  0
    5.1551   -7.9441   -0.2098 C   0  0  0  0  0  0  0  0  0  0  0  0
    5.6358   -4.7311   -2.0315 C   0  0  0  0  0  0  0  0  0  0  0  0
    4.1373    1.1455    0.1484 C   0  0  0  0  0  0  0  0  0  0  0  0
    4.4105   -1.2760    0.1579 C   0  0  0  0  0  0  0  0  0  0  0  0
    4.9615    0.0045    0.1690 C   0  0  0  0  0  0  0  0  0  0  0  0
    6.2239   -5.8045    1.6310 C   0  0  0  0  0  0  0  0  0  0  0  0
    7.2259   -4.6814    2.0478 C   0  0  0  0  0  0  0  0  0  0  0  0
   -2.8944    1.0792   -1.2964 C   0  0  0  0  0  0  0  0  0  0  0  0
   -3.9376    2.1598   -1.8346 C   0  0  0  0  0  0  0  0  0  0  0  0
    2.1640    5.1986   -3.8479 C   0  0  0  0  0  0  0  0  0  0  0  0
    1.1277    5.4954   -5.0464 C   0  0  0  0  0  0  0  0  0  0  0  0
    2.8498    0.4518    3.8688 I   0  5  0  0  0  0  0  0  0  0  0  0
   -0.2187   -2.0824    3.6667 I   0  5  0  0  0  0  0  0  0  0  0  0
    2.5183    0.5480   -3.5279 I   0  5  0  0  0  0  0  0  0  0  0  0
  1 10  1  0  0  0  0
  1 19  1  0  0  0  0
  2 13  1  0  0  0  0
  2 20  1  0  0  0  0
  3 14  1  0  0  0  0
  3 21  1  0  0  0  0
  4  7  1  0  0  0  0
  4 11  1  0  0  0  0
  4 12  1  0  0  0  0
  4 33  1  0  0  0  0
  5  8  1  0  0  0  0
  5 15  1  0  0  0  0
  5 16  1  0  0  0  0
  5 35  1  0  0  0  0
  6  9  1  0  0  0  0
  6 17  1  0  0  0  0
  6 18  1  0  0  0  0
  6 31  1  0  0  0  0
  7 10  1  0  0  0  0
  8 13  1  0  0  0  0
  9 14  1  0  0  0  0
 11 22  1  0  0  0  0
 12 23  1  0  0  0  0
 15 24  1  0  0  0  0
 16 25  1  0  0  0  0
 17 26  1  0  0  0  0
 18 27  1  0  0  0  0
 19 20  2  0  0  0  0
 19 21  1  0  0  0  0
 20 28  1  0  0  0  0
 21 29  2  0  0  0  0
 28 30  2  0  0  0  0
 29 30  1  0  0  0  0
 31 32  1  0  0  0  0
 33 34  1  0  0  0  0
 35 36  1  0  0  0  0
M  CHG  6   4   1   5   1   6   1  37  -1  38  -1  39  -1
M  END
