1440
 OpenBabel10141417483D

  7  6  0  0  0  0  0  0  0  0999 V2000
    1.3338    1.1689   -0.0769 O   0  0  0  0  0  0  0  0  0  0  0  0
    5.5797    1.8592    0.4103 O   0  5  0  0  0  0  0  0  0  0  0  0
    3.4141    1.9967    1.1155 O   0  0  0  0  0  0  0  0  0  0  0  0
    2.8617   -0.6596    0.6307 C   0  0  0  0  0  0  0  0  0  0  0  0
    4.2558   -0.0866    0.3681 C   0  0  0  0  0  0  0  0  0  0  0  0
    1.7686   -0.1597   -0.3183 C   0  0  0  0  0  0  0  0  0  0  0  0
    4.4280    1.4024    0.6645 C   0  0  0  0  0  0  0  0  0  0  0  0
  1  6  1  0  0  0  0
  2  7  1  0  0  0  0
  3  7  2  0  0  0  0
  4  5  1  0  0  0  0
  4  6  1  0  0  0  0
  5  7  1  0  0  0  0
M  CHG  1   2  -1
M  END
