
 OpenBabel10141418203D

 18 19  0  0  0  0  0  0  0  0999 V2000
    1.7915    0.4960    1.2328 N   0  0  0  0  0  0  0  0  0  0  0  0
    0.8865    1.4544    0.8803 C   0  0  0  0  0  0  0  0  0  0  0  0
    1.0227    2.4313    1.8277 C   0  0  0  0  0  0  0  0  0  0  0  0
    1.9189    2.0740    2.8048 N   0  0  0  0  0  0  0  0  0  0  0  0
    2.3658    0.8953    2.4118 C   0  0  0  0  0  0  0  0  0  0  0  0
    0.0887    1.4452   -0.2198 N   0  0  0  0  0  0  0  0  0  0  0  0
   -0.5873    2.5539   -0.3674 C   0  0  0  0  0  0  0  0  0  0  0  0
   -0.5084    3.6256    0.4921 N   0  0  0  0  0  0  0  0  0  0  0  0
    0.2680    3.6586    1.6481 C   0  0  0  0  0  0  0  0  0  0  0  0
    0.2922    4.6320    2.3790 O   0  0  0  0  0  0  0  0  0  0  0  0
   -1.4254    2.6926   -1.4271 N   0  0  0  0  0  0  0  0  0  0  0  0
    2.1522   -0.6716    0.4589 C   0  0  0  0  0  0  0  0  0  0  0  0
    3.5401   -0.5687    0.1333 O   0  0  0  0  0  0  0  0  0  0  0  0
    4.0459   -1.6849   -0.6266 C   0  0  0  0  0  0  0  0  0  0  0  0
    3.4028   -1.7771   -2.0185 C   0  0  0  0  0  0  0  0  0  0  0  0
    5.5647   -1.4888   -0.7606 C   0  0  0  0  0  0  0  0  0  0  0  0
    6.1742   -1.5275    0.5306 O   0  0  0  0  0  0  0  0  0  0  0  0
    3.5923   -0.5777   -2.7628 O   0  0  0  0  0  0  0  0  0  0  0  0
  1  2  1  0  0  0  0
  1  5  1  0  0  0  0
  1 12  1  0  0  0  0
  2  3  2  0  0  0  0
  2  6  1  0  0  0  0
  3  4  1  0  0  0  0
  3  9  1  0  0  0  0
  4  5  2  0  0  0  0
  6  7  2  0  0  0  0
  7  8  1  0  0  0  0
  7 11  1  0  0  0  0
  8  9  1  0  0  0  0
  9 10  2  0  0  0  0
 12 13  1  0  0  0  0
 13 14  1  0  0  0  0
 14 15  1  0  0  0  0
 14 16  1  0  0  0  0
 15 18  1  0  0  0  0
 16 17  1  0  0  0  0
M  END
