1044
 OpenBabel10141417483D

 27 30  0  0  1  0  0  0  0  0999 V2000
    0.9620    0.1856   -1.3516 F   0  0  0  0  0  0  0  0  0  0  0  0
    4.6004   -2.3890    0.6110 O   0  0  0  0  0  0  0  0  0  0  0  0
    4.5322    3.4172   -0.7286 O   0  0  0  0  0  0  0  0  0  0  0  0
    8.6517    3.2497    0.0448 O   0  0  0  0  0  0  0  0  0  0  0  0
    6.9464    4.6971    0.1690 O   0  0  0  0  0  0  0  0  0  0  0  0
    6.2924   -0.1198    0.2018 N   0  0  0  0  0  0  0  0  0  0  0  0
    1.8308   -2.3998   -0.4291 N   0  0  0  0  0  0  0  0  0  0  0  0
   -0.1318   -4.3954   -1.4269 N   0  0  0  0  0  0  0  0  0  0  0  0
    7.1348   -1.2826   -0.1892 C   0  0  0  0  0  0  0  0  0  0  0  0
    7.9671   -1.2709   -1.4633 C   0  0  0  0  0  0  0  0  0  0  0  0
    6.7955   -2.1856   -1.3508 C   0  0  0  0  0  0  0  0  0  0  0  0
    4.8762   -0.1149   -0.0469 C   0  0  0  0  0  0  0  0  0  0  0  0
    6.9747    1.0939    0.2935 C   0  0  0  0  0  0  0  0  0  0  0  0
    4.0205   -1.2666    0.0515 C   0  0  0  0  0  0  0  0  0  0  0  0
    4.2936    1.1090   -0.4138 C   0  0  0  0  0  0  0  0  0  0  0  0
    2.6613   -1.2330   -0.4071 C   0  0  0  0  0  0  0  0  0  0  0  0
    0.3623   -2.1560   -0.3253 C   0  0  0  0  0  0  0  0  0  0  0  0
   -0.4863   -3.4620   -0.3321 C   0  0  3  0  0  0  0  0  0  0  0  0
    2.1472   -3.3025   -1.5635 C   0  0  0  0  0  0  0  0  0  0  0  0
    1.3285   -4.6126   -1.4281 C   0  0  0  0  0  0  0  0  0  0  0  0
    6.5125    2.3237    0.0176 C   0  0  0  0  0  0  0  0  0  0  0  0
    5.0738    2.3729   -0.3930 C   0  0  0  0  0  0  0  0  0  0  0  0
    2.9704    1.1740   -0.8271 C   0  0  0  0  0  0  0  0  0  0  0  0
    2.1960    0.0253   -0.8540 C   0  0  0  0  0  0  0  0  0  0  0  0
   -1.9683   -3.0925   -0.4953 C   0  0  0  0  0  0  0  0  0  0  0  0
    7.3229    3.5395    0.0973 C   0  0  0  0  0  0  0  0  0  0  0  0
    3.8205   -3.0955    1.5751 C   0  0  0  0  0  0  0  0  0  0  0  0
  1 24  1  0  0  0  0
  2 14  1  0  0  0  0
  2 27  1  0  0  0  0
  3 22  2  0  0  0  0
  4 26  1  0  0  0  0
  5 26  2  0  0  0  0
  6  9  1  0  0  0  0
  6 12  1  0  0  0  0
  6 13  1  0  0  0  0
  7 16  1  0  0  0  0
  7 17  1  0  0  0  0
  7 19  1  0  0  0  0
  8 18  1  0  0  0  0
  8 20  1  0  0  0  0
  9 10  1  0  0  0  0
  9 11  1  0  0  0  0
 10 11  1  0  0  0  0
 12 14  2  0  0  0  0
 12 15  1  0  0  0  0
 13 21  2  0  0  0  0
 14 16  1  0  0  0  0
 15 22  1  0  0  0  0
 15 23  2  0  0  0  0
 16 24  2  0  0  0  0
 17 18  1  0  0  0  0
 18 25  1  0  0  0  0
 19 20  1  0  0  0  0
 21 22  1  0  0  0  0
 21 26  1  0  0  0  0
 23 24  1  0  0  0  0
M  END
