317
 OpenBabel10141417523D

 31 34  0  0  0  0  0  0  0  0999 V2000
    3.9299    0.1403    3.3449 Cl  0  0  0  0  0  0  0  0  0  0  0  0
    3.7385    2.5350    1.5826 F   0  0  0  0  0  0  0  0  0  0  0  0
   -5.6030    1.4410    2.7883 O   0  0  0  0  0  0  0  0  0  0  0  0
   -0.1821   -2.2352   -0.4903 O   0  0  0  0  0  0  0  0  0  0  0  0
   -0.8148   -4.9236   -0.0953 O   0  0  0  0  0  0  0  0  0  0  0  0
   -4.5644   -0.8504    1.2471 N   0  0  0  0  0  0  0  0  0  0  0  0
    4.9746   -2.1412   -1.1451 N   0  0  0  0  0  0  0  0  0  0  0  0
    3.8522   -5.9684   -0.0313 N   0  0  0  0  0  0  0  0  0  0  0  0
    5.5052   -4.3494   -0.6128 N   0  0  0  0  0  0  0  0  0  0  0  0
   -3.2292   -1.3743    1.5542 C   0  0  0  0  0  0  0  0  0  0  0  0
   -4.5861    0.5369    0.7400 C   0  0  0  0  0  0  0  0  0  0  0  0
   -5.4967   -0.9723    2.3916 C   0  0  0  0  0  0  0  0  0  0  0  0
   -2.3174   -1.5052    0.3237 C   0  0  0  0  0  0  0  0  0  0  0  0
   -4.5810    1.6444    1.8086 C   0  0  0  0  0  0  0  0  0  0  0  0
   -5.4272    0.1699    3.4198 C   0  0  0  0  0  0  0  0  0  0  0  0
   -0.9733   -2.1195    0.7038 C   0  0  0  0  0  0  0  0  0  0  0  0
    0.7687   -3.2080   -0.4171 C   0  0  0  0  0  0  0  0  0  0  0  0
    3.1613   -3.7338   -0.5696 C   0  0  0  0  0  0  0  0  0  0  0  0
    2.0810   -2.8198   -0.7037 C   0  0  0  0  0  0  0  0  0  0  0  0
    0.5024   -4.5468   -0.1330 C   0  0  0  0  0  0  0  0  0  0  0  0
    2.8896   -5.0499   -0.2014 C   0  0  0  0  0  0  0  0  0  0  0  0
    1.5678   -5.4454   -0.0133 C   0  0  0  0  0  0  0  0  0  0  0  0
    4.5273   -3.4336   -0.7710 C   0  0  0  0  0  0  0  0  0  0  0  0
    4.6583   -0.9579   -0.4307 C   0  0  0  0  0  0  0  0  0  0  0  0
    5.1124   -5.5704   -0.2432 C   0  0  0  0  0  0  0  0  0  0  0  0
   -1.1536   -5.9877    0.7825 C   0  0  0  0  0  0  0  0  0  0  0  0
    4.4967   -0.9691    0.9610 C   0  0  0  0  0  0  0  0  0  0  0  0
    4.5661    0.2598   -1.1198 C   0  0  0  0  0  0  0  0  0  0  0  0
    4.1765    0.2027    1.6431 C   0  0  0  0  0  0  0  0  0  0  0  0
    4.2439    1.4349   -0.4347 C   0  0  0  0  0  0  0  0  0  0  0  0
    4.0488    1.3981    0.9430 C   0  0  0  0  0  0  0  0  0  0  0  0
  1 29  1  0  0  0  0
  2 31  1  0  0  0  0
  3 14  1  0  0  0  0
  3 15  1  0  0  0  0
  4 16  1  0  0  0  0
  4 17  1  0  0  0  0
  5 20  1  0  0  0  0
  5 26  1  0  0  0  0
  6 10  1  0  0  0  0
  6 11  1  0  0  0  0
  6 12  1  0  0  0  0
  7 23  1  0  0  0  0
  7 24  1  0  0  0  0
  8 21  1  0  0  0  0
  8 25  2  0  0  0  0
  9 23  2  0  0  0  0
  9 25  1  0  0  0  0
 10 13  1  0  0  0  0
 11 14  1  0  0  0  0
 12 15  1  0  0  0  0
 13 16  1  0  0  0  0
 17 19  1  0  0  0  0
 17 20  2  0  0  0  0
 18 19  2  0  0  0  0
 18 21  1  0  0  0  0
 18 23  1  0  0  0  0
 20 22  1  0  0  0  0
 21 22  2  0  0  0  0
 24 27  2  0  0  0  0
 24 28  1  0  0  0  0
 27 29  1  0  0  0  0
 28 30  2  0  0  0  0
 29 31  2  0  0  0  0
 30 31  1  0  0  0  0
M  END
