441
 OpenBabel10141417503D

 18 19  0  0  1  0  0  0  0  0999 V2000
    1.7076   -0.4341   -0.0891 F   0  0  0  0  0  0  0  0  0  0  0  0
    2.5447    1.5299    0.3553 F   0  0  0  0  0  0  0  0  0  0  0  0
    4.0599   -0.4173   -2.1881 O   0  0  0  0  0  0  0  0  0  0  0  0
    0.7666    1.1163   -2.1098 O   0  0  0  0  0  0  0  0  0  0  0  0
    3.8491    1.3683   -4.3750 O   0  0  0  0  0  0  0  0  0  0  0  0
    4.7713    0.0631    1.7841 O   0  0  0  0  0  0  0  0  0  0  0  0
    5.0887    0.7480   -0.3705 N   0  0  0  0  0  0  0  0  0  0  0  0
    6.4584    1.5334    1.4141 N   0  0  0  0  0  0  0  0  0  0  0  0
    8.1358    3.0230    1.0412 N   0  0  0  0  0  0  0  0  0  0  0  0
    2.1743    0.9894   -1.9105 C   0  0  1  0  0  0  0  0  0  0  0  0
    2.5771    0.5121   -0.5276 C   0  0  0  0  0  0  0  0  0  0  0  0
    2.7717   -0.1139   -2.7701 C   0  0  1  0  0  0  0  0  0  0  0  0
    3.9672   -0.0992   -0.7689 C   0  0  1  0  0  0  0  0  0  0  0  0
    2.9406    0.2753   -4.2365 C   0  0  0  0  0  0  0  0  0  0  0  0
    5.7385    1.5746   -1.2574 C   0  0  0  0  0  0  0  0  0  0  0  0
    5.4074    0.7546    0.9917 C   0  0  0  0  0  0  0  0  0  0  0  0
    6.7378    2.3582   -0.8628 C   0  0  0  0  0  0  0  0  0  0  0  0
    7.0903    2.2817    0.5658 C   0  0  0  0  0  0  0  0  0  0  0  0
  1 11  1  0  0  0  0
  2 11  1  0  0  0  0
  3 12  1  0  0  0  0
  3 13  1  0  0  0  0
  5 14  1  0  0  0  0
  6 16  2  0  0  0  0
  7 15  1  0  0  0  0
  7 16  1  0  0  0  0
  8 16  1  0  0  0  0
  8 18  2  0  0  0  0
  9 18  1  0  0  0  0
 10  4  1  1  0  0  0
 10 11  1  0  0  0  0
 10 12  1  0  0  0  0
 11 13  1  0  0  0  0
 12 14  1  6  0  0  0
 13  7  1  6  0  0  0
 15 17  2  0  0  0  0
 17 18  1  0  0  0  0
M  END
