1241
 OpenBabel10141417543D

 18 18  0  0  0  0  0  0  0  0999 V2000
    1.0236   -0.1198   -0.2335 O   0  0  0  0  0  0  0  0  0  0  0  0
   -3.6292   -2.9569    0.0568 O   0  0  0  0  0  0  0  0  0  0  0  0
   -4.1596   -2.1484    2.0547 O   0  0  0  0  0  0  0  0  0  0  0  0
   -3.2852   -0.5850    0.3681 C   0  0  0  0  0  0  0  0  0  0  0  0
   -1.7624   -0.4594    0.6374 C   0  0  0  0  0  0  0  0  0  0  0  0
   -1.1235    0.8655    0.1863 C   0  0  0  0  0  0  0  0  0  0  0  0
   -4.0663    0.5190    1.1023 C   0  0  0  0  0  0  0  0  0  0  0  0
   -3.6167   -0.4986   -1.1321 C   0  0  0  0  0  0  0  0  0  0  0  0
    0.3788    0.9347    0.4770 C   0  0  0  0  0  0  0  0  0  0  0  0
   -3.7482   -1.9329    0.9231 C   0  0  0  0  0  0  0  0  0  0  0  0
    2.3750   -0.2528   -0.0556 C   0  0  0  0  0  0  0  0  0  0  0  0
    2.8945   -1.5512   -0.1849 C   0  0  0  0  0  0  0  0  0  0  0  0
    3.2422    0.8236    0.1695 C   0  0  0  0  0  0  0  0  0  0  0  0
    4.6256    0.6195    0.2830 C   0  0  0  0  0  0  0  0  0  0  0  0
    4.2758   -1.7533   -0.0476 C   0  0  0  0  0  0  0  0  0  0  0  0
    5.1343   -0.6774    0.1745 C   0  0  0  0  0  0  0  0  0  0  0  0
    2.0078   -2.7482   -0.3900 C   0  0  0  0  0  0  0  0  0  0  0  0
    5.5636    1.7701    0.5020 C   0  0  0  0  0  0  0  0  0  0  0  0
  1  9  1  0  0  0  0
  1 11  1  0  0  0  0
  2 10  1  0  0  0  0
  3 10  2  0  0  0  0
  4  5  1  0  0  0  0
  4  7  1  0  0  0  0
  4  8  1  0  0  0  0
  4 10  1  0  0  0  0
  5  6  1  0  0  0  0
  6  9  1  0  0  0  0
 11 12  2  0  0  0  0
 11 13  1  0  0  0  0
 12 15  1  0  0  0  0
 12 17  1  0  0  0  0
 13 14  2  0  0  0  0
 14 16  1  0  0  0  0
 14 18  1  0  0  0  0
 15 16  2  0  0  0  0
M  END
