
 OpenBabel10141417503D

 28 31  0  0  0  0  0  0  0  0999 V2000
   -0.2086    0.0084   -0.1003 C   0  0  0  0  0  0  0  0  0  0  0  0
    0.1933   -1.3103    0.1489 C   0  0  0  0  0  0  0  0  0  0  0  0
    2.6153   -0.6083   -0.0759 C   0  0  0  0  0  0  0  0  0  0  0  0
    0.8107    0.9943   -0.2823 N   0  0  0  0  0  0  0  0  0  0  0  0
   -1.5295    0.3378   -0.1689 N   0  0  0  0  0  0  0  0  0  0  0  0
   -3.8227   -0.2642   -0.0710 N   0  0  0  0  0  0  0  0  0  0  0  0
    1.6233   -1.6519    0.2232 C   0  0  0  0  0  0  0  0  0  0  0  0
   -2.4766   -0.6256    0.0114 C   0  0  0  0  0  0  0  0  0  0  0  0
    2.1423    0.6222   -0.3181 C   0  0  0  0  0  0  0  0  0  0  0  0
   -5.8657   -0.4809   -1.1698 C   0  0  0  0  0  0  0  0  0  0  0  0
   -0.7563   -2.3008    0.3510 C   0  0  0  0  0  0  0  0  0  0  0  0
    0.4449    2.4113   -0.4690 C   0  0  0  0  0  0  0  0  0  0  0  0
   -5.6572    0.9983   -0.9750 C   0  0  3  0  0  0  0  0  0  0  0  0
    4.0716   -0.8422   -0.0627 C   0  0  0  0  0  0  0  0  0  0  0  0
   -2.0902   -1.9473    0.2992 C   0  0  0  0  0  0  0  0  0  0  0  0
   -4.7801   -1.2896   -0.4993 C   0  0  0  0  0  0  0  0  0  0  0  0
   -4.1419    1.0187   -0.7111 C   0  0  0  0  0  0  0  0  0  0  0  0
    1.3188    3.5548   -0.0008 C   0  0  0  0  0  0  0  0  0  0  0  0
    0.0263    3.2733    0.6974 C   0  0  0  0  0  0  0  0  0  0  0  0
   -6.8596   -0.9656   -1.8508 N   0  0  0  0  0  0  0  0  0  0  0  0
    1.9950   -2.7850    0.5414 O   0  0  0  0  0  0  0  0  0  0  0  0
    4.8757   -0.0555   -0.5183 O   0  0  0  0  0  0  0  0  0  0  0  0
   -2.9948   -2.9142    0.5190 F   0  0  0  0  0  0  0  0  0  0  0  0
    4.4467   -1.9888    0.5519 O   0  0  0  0  0  0  0  0  0  0  0  0
   -6.5151    1.4919    0.1912 C   0  0  0  0  0  0  0  0  0  0  0  0
   -6.2384    2.8852    0.5469 N   0  0  0  0  0  0  0  0  0  0  0  0
   -6.7763   -2.3692   -1.8725 O   0  0  0  0  0  0  0  0  0  0  0  0
   -7.7713   -2.8826   -2.7495 C   0  0  0  0  0  0  0  0  0  0  0  0
  2  1  2  0  0  0  0
  3  9  2  0  0  0  0
  4  1  1  0  0  0  0
  5  1  1  0  0  0  0
  6  8  1  0  0  0  0
  7  2  1  0  0  0  0
  7  3  1  0  0  0  0
  8  5  2  0  0  0  0
  9  4  1  0  0  0  0
 10 16  1  0  0  0  0
 11  2  1  0  0  0  0
 11 15  2  0  0  0  0
 12  4  1  0  0  0  0
 13 17  1  0  0  0  0
 13 10  1  0  0  0  0
 14  3  1  0  0  0  0
 15  8  1  0  0  0  0
 16  6  1  0  0  0  0
 17  6  1  0  0  0  0
 18 12  1  0  0  0  0
 19 12  1  0  0  0  0
 19 18  1  0  0  0  0
 20 10  2  0  0  0  0
 20 27  1  0  0  0  0
 21  7  2  0  0  0  0
 22 14  2  0  0  0  0
 23 15  1  0  0  0  0
 24 14  1  0  0  0  0
 25 13  1  0  0  0  0
 26 25  1  0  0  0  0
 27 28  1  0  0  0  0
M  END
