798
 OpenBabel10141417483D

 33 35  0  0  1  0  0  0  0  0999 V2000
   -0.8202   -5.8258   -2.4694 O   0  0  0  0  0  0  0  0  0  0  0  0
    2.8022   -4.0191    0.0348 O   0  0  0  0  0  0  0  0  0  0  0  0
    0.3903   -5.6375    0.9009 O   0  0  0  0  0  0  0  0  0  0  0  0
   -2.1799   -7.6088   -1.7187 O   0  0  0  0  0  0  0  0  0  0  0  0
    3.8870   -6.0526   -0.5231 O   0  0  0  0  0  0  0  0  0  0  0  0
   -2.7717   -4.8201   -4.0756 O   0  0  0  0  0  0  0  0  0  0  0  0
   -5.5556   -7.8809   -2.9064 O   0  0  0  0  0  0  0  0  0  0  0  0
    1.6773   -7.2066   -3.3376 N   0  0  0  0  0  0  0  0  0  0  0  0
    2.2740   -2.3590   -2.4076 N   0  0  0  0  0  0  0  0  0  0  0  0
   -2.5863   -7.7546   -5.0405 N   0  0  0  0  0  0  0  0  0  0  0  0
    5.8811   -2.9969   -0.2938 N   0  0  0  0  0  0  0  0  0  0  0  0
    4.6165   -8.7651    0.5221 N   0  0  0  0  0  0  0  0  0  0  0  0
    0.2331   -6.1049   -1.5262 C   0  0  3  0  0  0  0  0  0  0  0  0
    1.4981   -3.9212   -0.6013 C   0  0  3  0  0  0  0  0  0  0  0  0
    0.3669   -5.0213   -0.3911 C   0  0  3  0  0  0  0  0  0  0  0  0
    1.5231   -6.1177   -2.3609 C   0  0  3  0  0  0  0  0  0  0  0  0
    1.4746   -3.5549   -2.1000 C   0  0  3  0  0  0  0  0  0  0  0  0
    1.8173   -4.7498   -3.0161 C   0  0  0  0  0  0  0  0  0  0  0  0
   -2.1373   -6.2314   -2.0960 C   0  0  3  0  0  0  0  0  0  0  0  0
   -3.5598   -7.1972   -4.0769 C   0  0  3  0  0  0  0  0  0  0  0  0
   -3.1421   -5.9356   -3.2579 C   0  0  3  0  0  0  0  0  0  0  0  0
    3.9214   -4.6417   -0.6207 C   0  0  3  0  0  0  0  0  0  0  0  0
   -4.1562   -8.2351   -3.0573 C   0  0  3  0  0  0  0  0  0  0  0  0
    5.3284   -4.3375   -0.0336 C   0  0  3  0  0  0  0  0  0  0  0  0
    3.5478   -6.4824    0.7905 C   0  0  3  0  0  0  0  0  0  0  0  0
    5.4208   -4.7500    1.4411 C   0  0  0  0  0  0  0  0  0  0  0  0
   -3.5121   -8.1106   -1.6534 C   0  0  0  0  0  0  0  0  0  0  0  0
    4.3697   -5.7856    1.8903 C   0  0  0  0  0  0  0  0  0  0  0  0
    3.3680   -8.0245    0.7599 C   0  0  3  0  0  0  0  0  0  0  0  0
   -4.1648   -9.7013   -3.5154 C   0  0  0  0  0  0  0  0  0  0  0  0
    2.5846   -8.5028    1.9875 C   0  0  0  0  0  0  0  0  0  0  0  0
   -2.5298   -7.0317   -6.3117 C   0  0  0  0  0  0  0  0  0  0  0  0
    4.4029  -10.1974    0.3939 C   0  0  0  0  0  0  0  0  0  0  0  0
  1 13  1  0  0  0  0
  1 19  1  0  0  0  0
  2 14  1  0  0  0  0
  2 22  1  0  0  0  0
  3 15  1  0  0  0  0
  4 19  1  0  0  0  0
  4 27  1  0  0  0  0
  5 22  1  0  0  0  0
  5 25  1  0  0  0  0
  6 21  1  0  0  0  0
  7 23  1  0  0  0  0
  8 16  1  0  0  0  0
  9 17  1  0  0  0  0
 10 20  1  0  0  0  0
 10 32  1  0  0  0  0
 11 24  1  0  0  0  0
 12 29  1  0  0  0  0
 12 33  1  0  0  0  0
 13 15  1  0  0  0  0
 13 16  1  0  0  0  0
 14 15  1  0  0  0  0
 14 17  1  0  0  0  0
 16 18  1  0  0  0  0
 17 18  1  0  0  0  0
 19 21  1  0  0  0  0
 20 21  1  0  0  0  0
 20 23  1  0  0  0  0
 22 24  1  0  0  0  0
 23 27  1  0  0  0  0
 23 30  1  0  0  0  0
 24 26  1  0  0  0  0
 25 28  1  0  0  0  0
 25 29  1  0  0  0  0
 26 28  1  0  0  0  0
 29 31  1  0  0  0  0
M  END
