3033968
 OpenBabel10141417493D

 23 26  0  0  1  0  0  0  0  0999 V2000
    4.5756   12.2500    8.8380 O   0  0  0  0  0  0  0  0  0  0  0  0
    4.5241    2.3788    5.4514 O   0  0  0  0  0  0  0  0  0  0  0  0
    5.2798    9.8477    9.0348 C   0  0  2  0  0  0  0  0  0  0  0  0
    3.5885    7.8249    8.6618 C   0  0  1  0  0  0  0  0  0  0  0  0
    3.8252    9.2567    9.1171 C   0  0  2  0  0  0  0  0  0  0  0  0
    4.0075    7.7180    7.1769 C   0  0  2  0  0  0  0  0  0  0  0  0
    5.5343    9.8483    7.4990 C   0  0  0  0  0  0  0  0  0  0  0  0
    5.3303    8.4479    6.8247 C   0  0  0  0  0  0  0  0  0  0  0  0
    3.8455    6.2508    6.7089 C   0  0  2  0  0  0  0  0  0  0  0  0
    4.9859   11.2544    9.7595 C   0  0  2  0  0  0  0  0  0  0  0  0
    4.0516    6.7051    9.6037 C   0  0  0  0  0  0  0  0  0  0  0  0
    6.4288    9.0937    9.8198 C   0  0  0  0  0  0  0  0  0  0  0  0
    3.2507    9.7441   10.3954 C   0  0  0  0  0  0  0  0  0  0  0  0
    4.5319    5.2247    7.5836 C   0  0  0  0  0  0  0  0  0  0  0  0
    4.9152    5.6159    8.9803 C   0  0  0  0  0  0  0  0  0  0  0  0
    3.8117   10.9265   10.6679 C   0  0  0  0  0  0  0  0  0  0  0  0
    4.2101    6.0190    5.2380 C   0  0  0  0  0  0  0  0  0  0  0  0
    7.5400    8.3551    9.0755 C   0  0  0  0  0  0  0  0  0  0  0  0
    3.8451    4.5954    4.8203 C   0  0  0  0  0  0  0  0  0  0  0  0
    4.7828    3.9794    7.1417 C   0  0  0  0  0  0  0  0  0  0  0  0
    6.0110   11.8098   10.6742 C   0  0  0  0  0  0  0  0  0  0  0  0
    4.4103    3.5610    5.7685 C   0  0  0  0  0  0  0  0  0  0  0  0
    6.7374   12.1868   11.5494 C   0  0  0  0  0  0  0  0  0  0  0  0
  2 22  2  0  0  0  0
  3  5  1  0  0  0  0
  3  7  1  0  0  0  0
  3 10  1  0  0  0  0
  3 12  1  6  0  0  0
  4  5  1  0  0  0  0
  4  6  1  0  0  0  0
  4 11  1  1  0  0  0
  5 13  1  6  0  0  0
  6  8  1  6  0  0  0
  6  9  1  0  0  0  0
  7  8  1  0  0  0  0
  9 14  1  1  0  0  0
  9 17  1  0  0  0  0
 10 16  1  0  0  0  0
 10  1  1  6  0  0  0
 10 21  1  0  0  0  0
 11 15  1  0  0  0  0
 12 18  1  0  0  0  0
 13 16  2  0  0  0  0
 14 15  1  0  0  0  0
 14 20  2  0  0  0  0
 17 19  1  0  0  0  0
 19 22  1  0  0  0  0
 20 22  1  0  0  0  0
 21 23  3  0  0  0  0
M  END
