1067
 OpenBabel10141417493D

 31 33  0  0  0  0  0  0  0  0999 V2000
    1.7361   -0.7091    2.0047 S   0  0  0  0  0  0  0  0  0  0  0  0
    2.6125   -3.4401    3.0616 O   0  0  0  0  0  0  0  0  0  0  0  0
    1.2178    0.6344    2.1576 O   0  0  0  0  0  0  0  0  0  0  0  0
    1.0521   -1.6684    1.1643 O   0  0  0  0  0  0  0  0  0  0  0  0
    8.3255   -1.7470   -3.2754 O   0  0  0  0  0  0  0  0  0  0  0  0
    2.3795   -2.7457    5.2280 N   0  0  0  0  0  0  0  0  0  0  0  0
    1.8895   -1.3057    3.5466 N   0  0  0  0  0  0  0  0  0  0  0  0
    6.5324   -0.4655   -2.6150 N   0  0  0  0  0  0  0  0  0  0  0  0
    5.0692   -1.7152   -4.6299 N   0  0  0  0  0  0  0  0  0  0  0  0
    5.6824   -4.4593   -5.0633 N   0  0  0  0  0  0  0  0  0  0  0  0
    2.7781   -3.9805    5.8967 C   0  0  0  0  0  0  0  0  0  0  0  0
    1.5833   -4.9152    6.1406 C   0  0  0  0  0  0  0  0  0  0  0  0
    3.4768   -3.6393    7.2193 C   0  0  0  0  0  0  0  0  0  0  0  0
    0.6149   -4.3902    7.2020 C   0  0  0  0  0  0  0  0  0  0  0  0
    2.5129   -3.0853    8.2710 C   0  0  0  0  0  0  0  0  0  0  0  0
    1.3158   -4.0015    8.5006 C   0  0  0  0  0  0  0  0  0  0  0  0
    2.3102   -2.5805    3.8817 C   0  0  0  0  0  0  0  0  0  0  0  0
    3.4211   -0.5696    1.4670 C   0  0  0  0  0  0  0  0  0  0  0  0
    6.0059   -0.3194    0.4206 C   0  0  0  0  0  0  0  0  0  0  0  0
    4.1366    0.6160    1.6653 C   0  0  0  0  0  0  0  0  0  0  0  0
    3.9964   -1.6376    0.7825 C   0  0  0  0  0  0  0  0  0  0  0  0
    7.3507   -0.1625   -0.2583 C   0  0  0  0  0  0  0  0  0  0  0  0
    5.4307    0.7363    1.1454 C   0  0  0  0  0  0  0  0  0  0  0  0
    5.2918   -1.5195    0.2844 C   0  0  0  0  0  0  0  0  0  0  0  0
    7.2577    0.3880   -1.6931 C   0  0  0  0  0  0  0  0  0  0  0  0
    7.1297   -1.4822   -3.3258 C   0  0  0  0  0  0  0  0  0  0  0  0
    6.2001   -2.3024   -4.1468 C   0  0  0  0  0  0  0  0  0  0  0  0
    6.4953   -3.6388   -4.3525 C   0  0  0  0  0  0  0  0  0  0  0  0
    4.5679   -3.8851   -5.5817 C   0  0  0  0  0  0  0  0  0  0  0  0
    4.2802   -2.5364   -5.3699 C   0  0  0  0  0  0  0  0  0  0  0  0
    3.6611   -4.7529   -6.3965 C   0  0  0  0  0  0  0  0  0  0  0  0
  1  3  2  0  0  0  0
  1  4  2  0  0  0  0
  1  7  1  0  0  0  0
  1 18  1  0  0  0  0
  2 17  2  0  0  0  0
  5 26  2  0  0  0  0
  6 11  1  0  0  0  0
  6 17  1  0  0  0  0
  7 17  1  0  0  0  0
  8 25  1  0  0  0  0
  8 26  1  0  0  0  0
  9 27  2  0  0  0  0
  9 30  1  0  0  0  0
 10 28  2  0  0  0  0
 10 29  1  0  0  0  0
 11 12  1  0  0  0  0
 11 13  1  0  0  0  0
 12 14  1  0  0  0  0
 13 15  1  0  0  0  0
 14 16  1  0  0  0  0
 15 16  1  0  0  0  0
 18 20  2  0  0  0  0
 18 21  1  0  0  0  0
 19 22  1  0  0  0  0
 19 23  2  0  0  0  0
 19 24  1  0  0  0  0
 20 23  1  0  0  0  0
 21 24  2  0  0  0  0
 22 25  1  0  0  0  0
 26 27  1  0  0  0  0
 27 28  1  0  0  0  0
 29 30  2  0  0  0  0
 29 31  1  0  0  0  0
M  END
