1251
 OpenBabel10141417513D

 37 40  0  0  0  0  0  0  0  0999 V2000
    0.9408    1.2178   -1.8592 S   0  0  0  0  0  0  0  0  0  0  0  0
    9.5807    1.9718   -2.3240 O   0  0  0  0  0  0  0  0  0  0  0  0
    6.1531    0.2985   -4.9035 O   0  0  0  0  0  0  0  0  0  0  0  0
   -0.0716    3.9150   -4.3724 O   0  0  0  0  0  0  0  0  0  0  0  0
    5.4125    3.2584   -8.6936 O   0  0  0  0  0  0  0  0  0  0  0  0
    0.3518    0.1150   -2.5826 O   0  0  0  0  0  0  0  0  0  0  0  0
    0.6519    1.4493   -0.4578 O   0  0  0  0  0  0  0  0  0  0  0  0
    0.2994    1.7034   -4.7945 N   0  0  0  0  0  0  0  0  0  0  0  0
    7.8851    1.1130   -3.6008 N   0  0  0  0  0  0  0  0  0  0  0  0
    0.6382    2.6223   -2.6737 N   0  0  0  0  0  0  0  0  0  0  0  0
    0.0204    1.7117   -6.2216 C   0  0  0  0  0  0  0  0  0  0  0  0
   -0.5320    0.3606   -6.7026 C   0  0  0  0  0  0  0  0  0  0  0  0
    1.2753    2.1110   -7.0022 C   0  0  0  0  0  0  0  0  0  0  0  0
    0.5179   -0.7484   -6.8008 C   0  0  0  0  0  0  0  0  0  0  0  0
    2.3308    1.0065   -7.0280 C   0  0  0  0  0  0  0  0  0  0  0  0
    1.7724   -0.3120   -7.5487 C   0  0  0  0  0  0  0  0  0  0  0  0
    9.1922    3.0911   -4.4192 C   0  0  0  0  0  0  0  0  0  0  0  0
    8.1491    3.2091   -5.5158 C   0  0  0  0  0  0  0  0  0  0  0  0
    8.8827    2.0421   -3.3422 C   0  0  0  0  0  0  0  0  0  0  0  0
    7.1151    2.2812   -5.6259 C   0  0  0  0  0  0  0  0  0  0  0  0
    9.4108    4.4443   -3.7113 C   0  0  0  0  0  0  0  0  0  0  0  0
   10.5147    2.6205   -5.0604 C   0  0  0  0  0  0  0  0  0  0  0  0
    7.7669   -0.0195   -2.6792 C   0  0  0  0  0  0  0  0  0  0  0  0
    6.9998    1.1595   -4.6764 C   0  0  0  0  0  0  0  0  0  0  0  0
    0.2609    2.8158   -4.0085 C   0  0  0  0  0  0  0  0  0  0  0  0
    8.2466    4.2020   -6.5089 C   0  0  0  0  0  0  0  0  0  0  0  0
    6.8627    0.2364   -1.4709 C   0  0  0  0  0  0  0  0  0  0  0  0
    6.2046    2.3439   -6.6951 C   0  0  0  0  0  0  0  0  0  0  0  0
    5.4327    0.6008   -1.7900 C   0  0  0  0  0  0  0  0  0  0  0  0
    7.3522    4.2521   -7.5827 C   0  0  0  0  0  0  0  0  0  0  0  0
    6.3357    3.3105   -7.6874 C   0  0  0  0  0  0  0  0  0  0  0  0
    2.6995    1.0782   -2.0101 C   0  0  0  0  0  0  0  0  0  0  0  0
    4.6177   -0.2568   -2.5468 C   0  0  0  0  0  0  0  0  0  0  0  0
    4.8786    1.7644   -1.2449 C   0  0  0  0  0  0  0  0  0  0  0  0
    3.2507   -0.0231   -2.6617 C   0  0  0  0  0  0  0  0  0  0  0  0
    3.5109    2.0027   -1.3480 C   0  0  0  0  0  0  0  0  0  0  0  0
    5.8680    3.7242   -9.9604 C   0  0  0  0  0  0  0  0  0  0  0  0
  1  6  2  0  0  0  0
  1  7  2  0  0  0  0
  1 10  1  0  0  0  0
  1 32  1  0  0  0  0
  2 19  2  0  0  0  0
  3 24  2  0  0  0  0
  4 25  2  0  0  0  0
  5 31  1  0  0  0  0
  5 37  1  0  0  0  0
  8 11  1  0  0  0  0
  8 25  1  0  0  0  0
  9 19  1  0  0  0  0
  9 23  1  0  0  0  0
  9 24  1  0  0  0  0
 10 25  1  0  0  0  0
 11 12  1  0  0  0  0
 11 13  1  0  0  0  0
 12 14  1  0  0  0  0
 13 15  1  0  0  0  0
 14 16  1  0  0  0  0
 15 16  1  0  0  0  0
 17 18  1  0  0  0  0
 17 19  1  0  0  0  0
 17 21  1  0  0  0  0
 17 22  1  0  0  0  0
 18 20  2  0  0  0  0
 18 26  1  0  0  0  0
 20 24  1  0  0  0  0
 20 28  1  0  0  0  0
 23 27  1  0  0  0  0
 26 30  2  0  0  0  0
 27 29  1  0  0  0  0
 28 31  2  0  0  0  0
 29 33  2  0  0  0  0
 29 34  1  0  0  0  0
 30 31  1  0  0  0  0
 32 35  2  0  0  0  0
 32 36  1  0  0  0  0
 33 35  1  0  0  0  0
 34 36  2  0  0  0  0
M  END
