1289
 OpenBabel10141417533D

 31 33  0  0  0  0  0  0  0  0999 V2000
    1.8890    0.0967    2.0157 S   0  0  0  0  0  0  0  0  0  0  0  0
    1.7237    2.0126   -0.3987 O   0  0  0  0  0  0  0  0  0  0  0  0
    1.4922   -1.0815    2.7647 O   0  0  0  0  0  0  0  0  0  0  0  0
    1.8449    1.4073    2.6173 O   0  0  0  0  0  0  0  0  0  0  0  0
    9.3691   -0.8743    3.6298 O   0  0  0  0  0  0  0  0  0  0  0  0
    8.2935   -5.1799    4.4717 O   0  0  0  0  0  0  0  0  0  0  0  0
   -0.5322   -0.5319   -1.4735 N   0  0  0  0  0  0  0  0  0  0  0  0
    0.2366    0.6621   -1.4648 N   0  0  0  0  0  0  0  0  0  0  0  0
    0.9824    0.0910    0.6441 N   0  0  0  0  0  0  0  0  0  0  0  0
    8.4319   -2.0025    1.8603 N   0  0  0  0  0  0  0  0  0  0  0  0
    8.5263   -4.3092    3.4217 N   0  0  0  0  0  0  0  0  0  0  0  0
   -1.8950   -3.1987   -2.9318 C   0  0  0  0  0  0  0  0  0  0  0  0
   -2.9829   -2.1428   -2.7738 C   0  0  0  0  0  0  0  0  0  0  0  0
   -0.5341   -2.8630   -2.3319 C   0  0  0  0  0  0  0  0  0  0  0  0
   -2.9333   -1.3714   -1.4602 C   0  0  0  0  0  0  0  0  0  0  0  0
   -0.0795   -1.4209   -2.5540 C   0  0  0  0  0  0  0  0  0  0  0  0
   -1.9607   -0.1898   -1.5002 C   0  0  0  0  0  0  0  0  0  0  0  0
    1.0366    1.0079   -0.3939 C   0  0  0  0  0  0  0  0  0  0  0  0
    3.5287   -0.2145    1.4108 C   0  0  0  0  0  0  0  0  0  0  0  0
    6.0974   -0.6812    0.4057 C   0  0  0  0  0  0  0  0  0  0  0  0
    7.4816   -0.9080   -0.1599 C   0  0  0  0  0  0  0  0  0  0  0  0
    4.5383    0.7198    1.6388 C   0  0  0  0  0  0  0  0  0  0  0  0
    3.7924   -1.3919    0.7036 C   0  0  0  0  0  0  0  0  0  0  0  0
    8.5846   -0.9276    0.9038 C   0  0  0  0  0  0  0  0  0  0  0  0
    5.8155    0.4870    1.1302 C   0  0  0  0  0  0  0  0  0  0  0  0
    5.0750   -1.6199    0.1981 C   0  0  0  0  0  0  0  0  0  0  0  0
    8.8610   -1.8912    3.1667 C   0  0  0  0  0  0  0  0  0  0  0  0
    8.6212   -3.0860    3.9744 C   0  0  0  0  0  0  0  0  0  0  0  0
    8.4352   -3.1516    5.3782 C   0  0  0  0  0  0  0  0  0  0  0  0
    8.2176   -4.4814    5.6353 C   0  0  0  0  0  0  0  0  0  0  0  0
    7.9260   -5.2545    6.8556 C   0  0  0  0  0  0  0  0  0  0  0  0
  1  3  2  0  0  0  0
  1  4  2  0  0  0  0
  1  9  1  0  0  0  0
  1 19  1  0  0  0  0
  2 18  2  0  0  0  0
  5 27  2  0  0  0  0
  6 11  1  0  0  0  0
  6 30  1  0  0  0  0
  7  8  1  0  0  0  0
  7 16  1  0  0  0  0
  7 17  1  0  0  0  0
  8 18  1  0  0  0  0
  9 18  1  0  0  0  0
 10 24  1  0  0  0  0
 10 27  1  0  0  0  0
 11 28  2  0  0  0  0
 12 13  1  0  0  0  0
 12 14  1  0  0  0  0
 13 15  1  0  0  0  0
 14 16  1  0  0  0  0
 15 17  1  0  0  0  0
 19 22  2  0  0  0  0
 19 23  1  0  0  0  0
 20 21  1  0  0  0  0
 20 25  2  0  0  0  0
 20 26  1  0  0  0  0
 21 24  1  0  0  0  0
 22 25  1  0  0  0  0
 23 26  2  0  0  0  0
 27 28  1  0  0  0  0
 28 29  1  0  0  0  0
 29 30  2  0  0  0  0
 30 31  1  0  0  0  0
M  END
