1296
 OpenBabel10141417483D

 12 12  0  0  1  0  0  0  0  0999 V2000
    0.6950    1.0597   -0.2938 O   0  0  0  0  0  0  0  0  0  0  0  0
   -1.6243   -2.4129   -0.3051 O   0  0  0  0  0  0  0  0  0  0  0  0
    1.1310   -2.5885    0.3029 O   0  0  0  0  0  0  0  0  0  0  0  0
   -1.1571    2.4045   -0.3395 O   0  0  0  0  0  0  0  0  0  0  0  0
    3.4732   -1.3082   -0.0011 O   0  0  0  0  0  0  0  0  0  0  0  0
   -2.9004    0.1386    0.3482 N   0  0  0  0  0  0  0  0  0  0  0  0
   -0.8860   -1.3007    0.2317 C   0  0  1  0  0  0  0  0  0  0  0  0
    0.5673   -1.3893   -0.2472 C   0  0  1  0  0  0  0  0  0  0  0  0
   -1.5298    0.0213   -0.2049 C   0  0  2  0  0  0  0  0  0  0  0  0
    1.3413   -0.1276    0.1741 C   0  0  1  0  0  0  0  0  0  0  0  0
   -0.6261    1.2053    0.2125 C   0  0  3  0  0  0  0  0  0  0  0  0
    2.7679   -0.1336   -0.3945 C   0  0  0  0  0  0  0  0  0  0  0  0
  1 10  1  0  0  0  0
  1 11  1  0  0  0  0
  4 11  1  0  0  0  0
  5 12  1  0  0  0  0
  7  8  1  0  0  0  0
  7  9  1  0  0  0  0
  7  2  1  6  0  0  0
  8  3  1  1  0  0  0
  8 10  1  0  0  0  0
  9  6  1  1  0  0  0
  9 11  1  0  0  0  0
 10 12  1  6  0  0  0
M  END
