1437
 OpenBabel10141417513D

 16 17  0  0  1  0  0  0  0  0999 V2000
    1.3720   -0.3658   -1.0183 O   0  0  0  0  0  0  0  0  0  0  0  0
    4.3667   -2.1431    1.8239 O   0  0  0  0  0  0  0  0  0  0  0  0
    2.9032   -1.1465    0.4201 N   0  0  0  0  0  0  0  0  0  0  0  0
    3.0502    1.2531   -0.2497 C   0  0  3  0  0  0  0  0  0  0  0  0
    3.7608    1.3733    1.1265 C   0  0  0  0  0  0  0  0  0  0  0  0
    4.1080    1.2543   -1.3997 C   0  0  0  0  0  0  0  0  0  0  0  0
    2.0601    2.4408   -0.3003 C   0  0  0  0  0  0  0  0  0  0  0  0
    4.6782    0.2004    1.4374 C   0  0  0  0  0  0  0  0  0  0  0  0
    2.3475   -0.1215   -0.3084 C   0  0  0  0  0  0  0  0  0  0  0  0
    3.9753   -1.1202    1.2722 C   0  0  0  0  0  0  0  0  0  0  0  0
    3.5328    1.1659   -2.8131 C   0  0  0  0  0  0  0  0  0  0  0  0
    0.7648    2.3263    0.2417 C   0  0  0  0  0  0  0  0  0  0  0  0
    2.4406    3.7022   -0.7953 C   0  0  0  0  0  0  0  0  0  0  0  0
   -0.1222    3.4064    0.2461 C   0  0  0  0  0  0  0  0  0  0  0  0
    1.5520    4.7825   -0.7925 C   0  0  0  0  0  0  0  0  0  0  0  0
    0.2696    4.6335   -0.2759 C   0  0  0  0  0  0  0  0  0  0  0  0
  1  9  2  0  0  0  0
  2 10  2  0  0  0  0
  3  9  1  0  0  0  0
  3 10  1  0  0  0  0
  4  5  1  0  0  0  0
  4  6  1  0  0  0  0
  4  7  1  0  0  0  0
  4  9  1  0  0  0  0
  5  8  1  0  0  0  0
  6 11  1  0  0  0  0
  7 12  2  0  0  0  0
  7 13  1  0  0  0  0
  8 10  1  0  0  0  0
 12 14  1  0  0  0  0
 13 15  2  0  0  0  0
 14 16  2  0  0  0  0
 15 16  1  0  0  0  0
M  END
