
 OpenBabel10141417483D

  5  4  0  0  0  0  0  0  0  0999 V2000
    2.7826    0.7832    0.9255 O   0  0  0  0  0  0  0  0  0  0  0  0
    1.2637   -0.7447    0.1956 O   0  0  0  0  0  0  0  0  0  0  0  0
    4.3509    0.6609   -1.0650 N   0  0  0  0  0  0  0  0  0  0  0  0
    3.0503   -0.0208   -1.3027 C   0  0  0  0  0  0  0  0  0  0  0  0
    2.2581   -0.0647    0.0022 C   0  0  0  0  0  0  0  0  0  0  0  0
  1  5  1  0  0  0  0
  2  5  2  0  0  0  0
  3  4  1  0  0  0  0
  4  5  1  0  0  0  0
M  END
