
 OpenBabel10141417513D

 39 41  0  0  0  0  0  0  0  0999 V2000
    0.1004    0.2286   -3.1800 O   0  0  0  0  0  0  0  0  0  0  0  0
   -0.2811   -0.7390   -2.2027 C   0  0  0  0  0  0  0  0  0  0  0  0
   -1.7600   -0.4806   -1.8867 C   0  0  0  0  0  0  0  0  0  0  0  0
   -2.1336    0.8703   -1.2065 C   0  0  0  0  0  0  0  0  0  0  0  0
   -1.4589    1.2241    0.0480 O   0  0  0  0  0  0  0  0  0  0  0  0
   -2.4968   -0.7382   -3.1375 O   0  0  0  0  0  0  0  0  0  0  0  0
   -0.1327    1.3959    0.1279 C   0  0  0  0  0  0  0  0  0  0  0  0
    0.4049    1.2653    1.5098 C   0  0  0  0  0  0  0  0  0  0  0  0
    0.6321    1.4164   -0.7505 O   0  0  0  0  0  0  0  0  0  0  0  0
    1.7646    1.9675    1.7109 C   0  0  0  0  0  0  0  0  0  0  0  0
    3.0001    1.6082    0.8292 C   0  0  0  0  0  0  0  0  0  0  0  0
    3.5994    0.2174    0.9469 C   0  0  0  0  0  0  0  0  0  0  0  0
    4.9907    0.0754    0.8677 C   0  0  0  0  0  0  0  0  0  0  0  0
    5.6174   -1.1431    1.1521 C   0  0  0  0  0  0  0  0  0  0  0  0
    4.8642   -2.2921    1.3481 C   0  0  0  0  0  0  0  0  0  0  0  0
    3.4827   -2.2088    1.2580 C   0  0  0  0  0  0  0  0  0  0  0  0
    2.8637   -0.9647    1.0688 C   0  0  0  0  0  0  0  0  0  0  0  0
    1.2230    0.9233   -2.9353 C   0  0  0  0  0  0  0  0  0  0  0  0
    2.3301    0.4094   -2.8939 O   0  0  0  0  0  0  0  0  0  0  0  0
    0.9402    2.4200   -2.8777 C   0  0  0  0  0  0  0  0  0  0  0  0
    1.4363    2.8298   -4.1929 C   0  0  0  0  0  0  0  0  0  0  0  0
    1.4259    4.3040   -4.4387 C   0  0  0  0  0  0  0  0  0  0  0  0
    2.0220    4.5349   -5.7990 C   0  0  0  0  0  0  0  0  0  0  0  0
    2.1349    5.8448   -6.2441 C   0  0  0  0  0  0  0  0  0  0  0  0
    2.7075    6.0922   -7.4849 C   0  0  0  0  0  0  0  0  0  0  0  0
    3.1409    5.0365   -8.2940 C   0  0  0  0  0  0  0  0  0  0  0  0
    3.0026    3.7238   -7.8754 C   0  0  0  0  0  0  0  0  0  0  0  0
    2.4627    3.4800   -6.6301 C   0  0  0  0  0  0  0  0  0  0  0  0
   -2.2512    0.0716   -4.2184 C   0  0  0  0  0  0  0  0  0  0  0  0
   -2.2206   -0.7158   -5.5144 C   0  0  0  0  0  0  0  0  0  0  0  0
   -2.0199    1.2724   -4.1576 O   0  0  0  0  0  0  0  0  0  0  0  0
   -0.8419   -0.6583   -6.2000 C   0  0  0  0  0  0  0  0  0  0  0  0
   -0.8055   -1.4003   -7.5447 C   0  0  0  0  0  0  0  0  0  0  0  0
    0.5494   -1.3608   -8.2286 C   0  0  0  0  0  0  0  0  0  0  0  0
    1.7019   -1.9195   -7.6506 C   0  0  0  0  0  0  0  0  0  0  0  0
    2.9199   -1.9261   -8.3429 C   0  0  0  0  0  0  0  0  0  0  0  0
    3.0096   -1.3508   -9.6079 C   0  0  0  0  0  0  0  0  0  0  0  0
    1.8775   -0.7857  -10.1887 C   0  0  0  0  0  0  0  0  0  0  0  0
    0.6554   -0.8047   -9.5113 C   0  0  0  0  0  0  0  0  0  0  0  0
  1  2  1  0  0  0  0
  1 18  1  0  0  0  0
  2  3  1  0  0  0  0
  3  4  1  0  0  0  0
  3  6  1  0  0  0  0
  4  5  1  0  0  0  0
  5  7  1  0  0  0  0
  6 29  1  0  0  0  0
  7  8  1  0  0  0  0
  7  9  2  0  0  0  0
  8 10  1  0  0  0  0
 10 11  1  0  0  0  0
 11 12  1  0  0  0  0
 12 13  2  0  0  0  0
 12 17  1  0  0  0  0
 13 14  1  0  0  0  0
 14 15  2  0  0  0  0
 15 16  1  0  0  0  0
 16 17  2  0  0  0  0
 18 19  2  0  0  0  0
 18 20  1  0  0  0  0
 20 21  1  0  0  0  0
 21 22  1  0  0  0  0
 22 23  1  0  0  0  0
 23 24  2  0  0  0  0
 23 28  1  0  0  0  0
 24 25  1  0  0  0  0
 25 26  2  0  0  0  0
 26 27  1  0  0  0  0
 27 28  2  0  0  0  0
 29 30  1  0  0  0  0
 29 31  2  0  0  0  0
 30 32  1  0  0  0  0
 32 33  1  0  0  0  0
 33 34  1  0  0  0  0
 34 35  2  0  0  0  0
 34 39  1  0  0  0  0
 35 36  1  0  0  0  0
 36 37  2  0  0  0  0
 37 38  1  0  0  0  0
 38 39  2  0  0  0  0
M  END
