[NO NAME]
 OpenBabel10141417513D
Created with ChemWriter - http://chemwriter.com
 91 96  0  0  1  0  0  0  0  0999 V2000
  -16.5340    6.7942   13.1101 O   0  0  0  0  0  0  0  0  0  0  0  0
  -19.5442    8.6287   15.6224 O   0  0  0  0  0  0  0  0  0  0  0  0
  -18.3293    4.5998    9.6195 O   0  0  0  0  0  0  0  0  0  0  0  0
  -14.6848   -0.0806    5.4272 O   0  0  0  0  0  0  0  0  0  0  0  0
  -13.8663    4.1319    7.0618 O   0  0  0  0  0  0  0  0  0  0  0  0
  -18.0625    5.0551   17.9126 O   0  0  0  0  0  0  0  0  0  0  0  0
  -12.2773   -0.2405    6.1237 O   0  0  0  0  0  0  0  0  0  0  0  0
   -0.6732    6.5577   12.8714 O   0  0  0  0  0  0  0  0  0  0  0  0
    1.2276    1.7734   14.0732 O   0  0  0  0  0  0  0  0  0  0  0  0
   -3.2462    3.3445    9.9767 O   0  0  0  0  0  0  0  0  0  0  0  0
   -8.1331    6.5273    9.8589 O   0  0  0  0  0  0  0  0  0  0  0  0
   -8.2716    2.7888    6.4835 O   0  0  0  0  0  0  0  0  0  0  0  0
  -10.5805    5.4947    6.7276 O   0  0  0  0  0  0  0  0  0  0  0  0
   -4.5392   -1.5271    8.9407 O   0  0  0  0  0  0  0  0  0  0  0  0
  -18.7263    6.1733   12.9613 N   0  0  0  0  0  0  0  0  0  0  0  0
  -16.3763    4.8410   10.7866 N   0  0  0  0  0  0  0  0  0  0  0  0
  -18.3810    6.7029   15.8076 N   0  0  0  0  0  0  0  0  0  0  0  0
  -15.8734    3.5226    7.9490 N   0  0  0  0  0  0  0  0  0  0  0  0
  -18.8023    5.3409   15.7664 N   0  0  0  0  0  0  0  0  0  0  0  0
  -13.2726    2.7194   13.4105 N   0  0  0  0  0  0  0  0  0  0  0  0
  -12.8037    1.7474    7.1468 N   0  0  0  0  0  0  0  0  0  0  0  0
   -0.3996    3.2862   13.4671 N   0  0  0  0  0  0  0  0  0  0  0  0
   -2.3960    5.4257   12.0712 N   0  0  0  0  0  0  0  0  0  0  0  0
  -18.9498    3.3144   16.8146 N   0  0  0  0  0  0  0  0  0  0  0  0
  -10.1112    2.2875    7.7209 N   0  0  0  0  0  0  0  0  0  0  0  0
   -4.8382    4.8498    9.8063 N   0  0  0  0  0  0  0  0  0  0  0  0
   -7.5391    4.6334    8.7375 N   0  0  0  0  0  0  0  0  0  0  0  0
  -11.2275    3.1510   14.2938 N   0  0  0  0  0  0  0  0  0  0  0  0
  -12.3242    1.4092   15.1432 N   0  0  0  0  0  0  0  0  0  0  0  0
   -3.7118    7.8710    6.6127 N   0  0  0  0  0  0  0  0  0  0  0  0
   -5.9227    3.0095   13.9837 N   0  0  0  0  0  0  0  0  0  0  0  0
   -7.6589    2.7143   12.6490 N   0  0  0  0  0  0  0  0  0  0  0  0
  -19.2243    7.4310   13.5291 C   0  0  1  0  0  0  0  0  0  0  0  0
  -20.7002    7.5074   13.1019 C   0  0  0  0  0  0  0  0  0  0  0  0
  -20.9772    6.2539   12.2775 C   0  0  0  0  0  0  0  0  0  0  0  0
  -19.8164    5.3232   12.5372 C   0  0  0  0  0  0  0  0  0  0  0  0
  -17.3718    5.9557   12.7766 C   0  0  0  0  0  0  0  0  0  0  0  0
  -16.9406    4.6175   12.1238 C   0  0  2  0  0  0  0  0  0  0  0  0
  -19.1001    7.6224   15.0655 C   0  0  0  0  0  0  0  0  0  0  0  0
  -15.9003    3.9551   13.0378 C   0  0  0  0  0  0  0  0  0  0  0  0
  -15.5101    2.5656   12.5181 C   0  0  0  0  0  0  0  0  0  0  0  0
  -16.2732    4.9106    8.3117 C   0  0  2  0  0  0  0  0  0  0  0  0
  -17.1131    4.8274    9.6195 C   0  0  0  0  0  0  0  0  0  0  0  0
  -17.0799    5.6148    7.1872 C   0  0  0  0  0  0  0  0  0  0  0  0
  -16.3292    5.8607    5.8538 C   0  0  0  0  0  0  0  0  0  0  0  0
  -14.4810    1.9027   13.4216 C   0  0  0  0  0  0  0  0  0  0  0  0
  -17.2332    6.5484    4.8191 C   0  0  0  0  0  0  0  0  0  0  0  0
  -15.0696    6.7208    5.9987 C   0  0  0  0  0  0  0  0  0  0  0  0
  -14.6697    3.2314    7.3431 C   0  0  0  0  0  0  0  0  0  0  0  0
  -14.2953    1.7484    7.0478 C   0  0  1  0  0  0  0  0  0  0  0  0
  -14.9051    1.3118    5.6866 C   0  0  0  0  0  0  0  0  0  0  0  0
  -18.5956    4.6266   16.9075 C   0  0  0  0  0  0  0  0  0  0  0  0
   -1.0943    4.4340   14.0140 C   0  0  1  0  0  0  0  0  0  0  0  0
  -15.1239   -0.6445    4.1815 C   0  0  0  0  0  0  0  0  0  0  0  0
  -10.4207    1.0078    7.0254 C   0  0  2  0  0  0  0  0  0  0  0  0
  -11.9256    0.8076    6.7149 C   0  0  0  0  0  0  0  0  0  0  0  0
  -12.3571    2.4167   14.2496 C   0  0  0  0  0  0  0  0  0  0  0  0
   -0.1593    4.9012   15.1302 C   0  0  0  0  0  0  0  0  0  0  0  0
   -3.5530    4.5105   12.0529 C   0  0  1  0  0  0  0  0  0  0  0  0
   -5.8043    5.9234   10.0755 C   0  0  1  0  0  0  0  0  0  0  0  0
    0.7251    3.7052   15.4742 C   0  0  0  0  0  0  0  0  0  0  0  0
   -9.9541   -0.3272    7.6919 C   0  0  0  0  0  0  0  0  0  0  0  0
   -5.2626    7.3391    9.8746 C   0  0  0  0  0  0  0  0  0  0  0  0
   -1.3720    5.5355   12.9655 C   0  0  0  0  0  0  0  0  0  0  0  0
    0.5735    2.7748   14.2722 C   0  0  0  0  0  0  0  0  0  0  0  0
   -4.6722    4.9725   13.0007 C   0  0  0  0  0  0  0  0  0  0  0  0
   -8.9164    4.4336    8.1639 C   0  0  2  0  0  0  0  0  0  0  0  0
   -3.9243    4.1954   10.5748 C   0  0  0  0  0  0  0  0  0  0  0  0
  -14.5949   -2.0940    4.1262 C   0  0  0  0  0  0  0  0  0  0  0  0
  -16.6512   -0.6876    4.1863 C   0  0  0  0  0  0  0  0  0  0  0  0
  -14.5891    0.0806    2.9379 C   0  0  0  0  0  0  0  0  0  0  0  0
   -4.9021    7.6366    8.4697 C   0  0  0  0  0  0  0  0  0  0  0  0
   -7.2422    5.7332    9.5093 C   0  0  0  0  0  0  0  0  0  0  0  0
   -9.0596    3.1211    7.3039 C   0  0  0  0  0  0  0  0  0  0  0  0
   -8.4940   -0.6424    7.9441 C   0  0  0  0  0  0  0  0  0  0  0  0
   -5.7514    8.1871    7.4630 C   0  0  0  0  0  0  0  0  0  0  0  0
   -5.8271    4.0108   13.0444 C   0  0  0  0  0  0  0  0  0  0  0  0
   -3.6590    7.4393    7.9066 C   0  0  0  0  0  0  0  0  0  0  0  0
   -4.9694    8.3442    6.3207 C   0  0  0  0  0  0  0  0  0  0  0  0
   -9.2727    5.6182    7.2746 C   0  0  0  0  0  0  0  0  0  0  0  0
   -7.1046    8.5834    7.4155 C   0  0  0  0  0  0  0  0  0  0  0  0
   -8.0450   -1.9795    7.9307 C   0  0  0  0  0  0  0  0  0  0  0  0
   -7.5759    0.3408    8.3073 C   0  0  0  0  0  0  0  0  0  0  0  0
   -5.4652    8.9053    5.1412 C   0  0  0  0  0  0  0  0  0  0  0  0
   -6.9628    3.8233   12.2760 C   0  0  0  0  0  0  0  0  0  0  0  0
   -7.6244    9.1199    6.2337 C   0  0  0  0  0  0  0  0  0  0  0  0
   -6.8086    9.2907    5.1193 C   0  0  0  0  0  0  0  0  0  0  0  0
   -6.7195   -2.2992    8.2613 C   0  0  0  0  0  0  0  0  0  0  0  0
   -6.2517    0.0362    8.6068 C   0  0  0  0  0  0  0  0  0  0  0  0
   -7.0117    2.2442   13.6803 C   0  0  0  0  0  0  0  0  0  0  0  0
   -5.8336   -1.2814    8.5950 C   0  0  0  0  0  0  0  0  0  0  0  0
  1 37  2  0  0  0  0
  2 39  2  0  0  0  0
  3 43  2  0  0  0  0
  4 51  1  0  0  0  0
  4 54  1  0  0  0  0
  5 49  2  0  0  0  0
  6 52  2  0  0  0  0
  7 56  2  0  0  0  0
  8 64  2  0  0  0  0
  9 65  2  0  0  0  0
 10 68  2  0  0  0  0
 11 73  2  0  0  0  0
 12 74  2  0  0  0  0
 13 80  1  0  0  0  0
 14 91  1  0  0  0  0
 15 33  1  0  0  0  0
 15 36  1  0  0  0  0
 15 37  1  0  0  0  0
 16 43  1  0  0  0  0
 17 19  1  0  0  0  0
 17 39  1  0  0  0  0
 18 49  1  0  0  0  0
 19 52  1  0  0  0  0
 20 46  1  0  0  0  0
 20 57  2  0  0  0  0
 21 56  1  0  0  0  0
 22 53  1  0  0  0  0
 22 65  1  0  0  0  0
 23 64  1  0  0  0  0
 24 52  1  0  0  0  0
 25 74  1  0  0  0  0
 26 68  1  0  0  0  0
 27 73  1  0  0  0  0
 28 57  1  0  0  0  0
 29 57  1  0  0  0  0
 30 78  1  0  0  0  0
 30 79  1  0  0  0  0
 31 77  1  0  0  0  0
 31 90  1  0  0  0  0
 32 85  1  0  0  0  0
 32 90  2  0  0  0  0
 33 34  1  0  0  0  0
 33 39  1  1  0  0  0
 34 35  1  0  0  0  0
 35 36  1  0  0  0  0
 37 38  1  0  0  0  0
 38 16  1  6  0  0  0
 38 40  1  0  0  0  0
 40 41  1  0  0  0  0
 41 46  1  0  0  0  0
 42 18  1  6  0  0  0
 42 43  1  0  0  0  0
 42 44  1  0  0  0  0
 44 45  1  0  0  0  0
 45 47  1  0  0  0  0
 45 48  1  0  0  0  0
 50 51  1  6  0  0  0
 50 49  1  0  0  0  0
 50 21  1  0  0  0  0
 53 58  1  0  0  0  0
 53 64  1  6  0  0  0
 54 69  1  0  0  0  0
 54 70  1  0  0  0  0
 54 71  1  0  0  0  0
 55 25  1  1  0  0  0
 55 56  1  0  0  0  0
 55 62  1  0  0  0  0
 58 61  1  0  0  0  0
 59 23  1  6  0  0  0
 59 66  1  0  0  0  0
 59 68  1  0  0  0  0
 60 26  1  6  0  0  0
 60 63  1  0  0  0  0
 60 73  1  0  0  0  0
 61 65  1  0  0  0  0
 62 75  1  0  0  0  0
 63 72  1  0  0  0  0
 66 77  1  0  0  0  0
 67 27  1  6  0  0  0
 67 74  1  0  0  0  0
 67 80  1  0  0  0  0
 72 76  1  0  0  0  0
 72 78  2  0  0  0  0
 75 82  2  0  0  0  0
 75 83  1  0  0  0  0
 76 79  1  0  0  0  0
 76 81  2  0  0  0  0
 77 85  2  0  0  0  0
 79 84  2  0  0  0  0
 81 86  1  0  0  0  0
 82 88  1  0  0  0  0
 83 89  2  0  0  0  0
 84 87  1  0  0  0  0
 86 87  2  0  0  0  0
 88 91  2  0  0  0  0
 89 91  1  0  0  0  0
M  END
