
 OpenBabel10141417503D

 15 15  0  0  0  0  0  0  0  0999 V2000
   -0.2988   -1.1045    0.8900 C   0  0  0  0  0  0  0  0  0  0  0  0
    1.1641   -1.4368    0.6357 C   0  0  0  0  0  0  0  0  0  0  0  0
   -0.9918   -1.6227    2.0025 C   0  0  0  0  0  0  0  0  0  0  0  0
   -1.0124   -0.2375    0.0386 C   0  0  0  0  0  0  0  0  0  0  0  0
    1.4151   -2.6625   -0.2306 C   0  0  0  0  0  0  0  0  0  0  0  0
   -2.3138   -1.2436    2.2815 C   0  0  0  0  0  0  0  0  0  0  0  0
   -0.2499   -2.7258    3.1094 Cl  0  0  0  0  0  0  0  0  0  0  0  0
   -2.3310    0.1466    0.3250 C   0  0  0  0  0  0  0  0  0  0  0  0
   -0.3012    0.4288   -1.3911 Cl  0  0  0  0  0  0  0  0  0  0  0  0
    2.7756   -2.9000   -0.4592 N   0  0  0  0  0  0  0  0  0  0  0  0
    0.5231   -3.3398   -0.7246 O   0  0  0  0  0  0  0  0  0  0  0  0
   -2.9800   -0.3479    1.4515 C   0  0  0  0  0  0  0  0  0  0  0  0
    3.3035   -4.0524   -0.9695 C   0  0  0  0  0  0  0  0  0  0  0  0
    2.5486   -5.1623   -1.0769 N   0  0  0  0  0  0  0  0  0  0  0  0
    4.5336   -4.0809   -1.3445 N   0  0  0  0  0  0  0  0  0  0  0  0
  1  2  1  0  0  0  0
  1  3  2  0  0  0  0
  1  4  1  0  0  0  0
  2  5  1  0  0  0  0
  3  6  1  0  0  0  0
  3  7  1  0  0  0  0
  4  8  2  0  0  0  0
  4  9  1  0  0  0  0
  5 10  1  0  0  0  0
  5 11  2  0  0  0  0
  6 12  2  0  0  0  0
  8 12  1  0  0  0  0
 10 13  1  0  0  0  0
 13 14  1  0  0  0  0
 13 15  2  0  0  0  0
M  END
