
 OpenBabel10141417523D

  4  3  0  0  0  0  0  0  0  0999 V2000
    1.1502    0.0756   -0.0221 N   0  0  0  0  0  0  0  0  0  0  0  0
    3.0802    0.7834    0.8837 N   0  0  0  0  0  0  0  0  0  0  0  0
    3.1743   -0.6161   -0.9074 N   0  0  0  0  0  0  0  0  0  0  0  0
    2.4851    0.0483   -0.0570 C   0  0  0  0  0  0  0  0  0  0  0  0
  1  4  1  0  0  0  0
  2  4  1  0  0  0  0
  3  4  2  0  0  0  0
M  END
