801
 OpenBabel10141417493D

 24 26  0  0  0  0  0  0  0  0999 V2000
    0.8204    0.2112   -0.8077 Cl  0  0  0  0  0  0  0  0  0  0  0  0
    7.3516   -2.1952   -1.7815 F   0  0  0  0  0  0  0  0  0  0  0  0
    9.0701   -2.6681   -0.5122 F   0  0  0  0  0  0  0  0  0  0  0  0
    7.1291   -3.5673   -0.1117 F   0  0  0  0  0  0  0  0  0  0  0  0
    8.8261    0.6029   -0.8330 O   0  0  0  0  0  0  0  0  0  0  0  0
    6.7474   -0.0848   -0.1565 N   0  0  0  0  0  0  0  0  0  0  0  0
    6.4133    2.9193   -0.4001 N   0  0  0  0  0  0  0  0  0  0  0  0
    5.3241    0.0191   -0.2398 C   0  0  0  0  0  0  0  0  0  0  0  0
    4.6352    1.2478   -0.1693 C   0  0  0  0  0  0  0  0  0  0  0  0
    7.3662   -1.2843    0.4449 C   0  0  0  0  0  0  0  0  0  0  0  0
    5.3290    2.5215    0.1761 C   0  0  0  0  0  0  0  0  0  0  0  0
    7.6175    0.8248   -0.7685 C   0  0  0  0  0  0  0  0  0  0  0  0
    7.0063    2.0606   -1.4253 C   0  0  0  0  0  0  0  0  0  0  0  0
    4.5611   -1.1445   -0.4392 C   0  0  0  0  0  0  0  0  0  0  0  0
    3.2435    1.3075   -0.3672 C   0  0  0  0  0  0  0  0  0  0  0  0
    4.7430    3.3979    1.2455 C   0  0  0  0  0  0  0  0  0  0  0  0
    7.7438   -2.4210   -0.5089 C   0  0  0  0  0  0  0  0  0  0  0  0
    3.1744   -1.0847   -0.6141 C   0  0  0  0  0  0  0  0  0  0  0  0
    2.5227    0.1408   -0.5853 C   0  0  0  0  0  0  0  0  0  0  0  0
    4.9205    4.7849    1.1653 C   0  0  0  0  0  0  0  0  0  0  0  0
    4.0412    2.8557    2.3312 C   0  0  0  0  0  0  0  0  0  0  0  0
    4.3774    5.6212    2.1433 C   0  0  0  0  0  0  0  0  0  0  0  0
    3.4955    3.6959    3.3046 C   0  0  0  0  0  0  0  0  0  0  0  0
    3.6610    5.0767    3.2084 C   0  0  0  0  0  0  0  0  0  0  0  0
  1 19  1  0  0  0  0
  2 17  1  0  0  0  0
  3 17  1  0  0  0  0
  4 17  1  0  0  0  0
  5 12  2  0  0  0  0
  6  8  1  0  0  0  0
  6 10  1  0  0  0  0
  6 12  1  0  0  0  0
  7 11  2  0  0  0  0
  7 13  1  0  0  0  0
  8  9  2  0  0  0  0
  8 14  1  0  0  0  0
  9 11  1  0  0  0  0
  9 15  1  0  0  0  0
 10 17  1  0  0  0  0
 11 16  1  0  0  0  0
 12 13  1  0  0  0  0
 14 18  2  0  0  0  0
 15 19  2  0  0  0  0
 16 20  2  0  0  0  0
 16 21  1  0  0  0  0
 18 19  1  0  0  0  0
 20 22  1  0  0  0  0
 21 23  2  0  0  0  0
 22 24  2  0  0  0  0
 23 24  1  0  0  0  0
M  END
