793
 OpenBabel10141419013D

 14 14  0  0  0  0  0  0  0  0999 V2000
    1.4121   -0.2947   -2.1707 I   0  0  0  0  0  0  0  0  0  0  0  0
    7.3710   -3.5105   -1.2324 Cl  0  0  0  0  0  0  0  0  0  0  0  0
   11.2984    1.3257   -1.6373 Cl  0  0  0  0  0  0  0  0  0  0  0  0
   12.3573   -1.7299   -1.9546 Cl  0  0  0  0  0  0  0  0  0  0  0  0
    6.6306   -0.6756   -0.9983 O   0  0  0  0  0  0  0  0  0  0  0  0
    7.9704   -0.8429   -1.2283 C   0  0  0  0  0  0  0  0  0  0  0  0
    8.4431   -2.1596   -1.3428 C   0  0  0  0  0  0  0  0  0  0  0  0
    8.8788    0.2167   -1.3067 C   0  0  0  0  0  0  0  0  0  0  0  0
   10.2383   -0.0356   -1.5349 C   0  0  0  0  0  0  0  0  0  0  0  0
    9.7970   -2.4136   -1.5691 C   0  0  0  0  0  0  0  0  0  0  0  0
   10.6963   -1.3514   -1.6698 C   0  0  0  0  0  0  0  0  0  0  0  0
    6.0348    0.5210   -1.5031 C   0  0  0  0  0  0  0  0  0  0  0  0
    4.6029    0.2819   -1.7025 C   0  0  0  0  0  0  0  0  0  0  0  0
    3.4323    0.0754   -1.8724 C   0  0  0  0  0  0  0  0  0  0  0  0
  1 14  1  0  0  0  0
  2  7  1  0  0  0  0
  3  9  1  0  0  0  0
  4 11  1  0  0  0  0
  5  6  1  0  0  0  0
  5 12  1  0  0  0  0
  6  7  1  0  0  0  0
  6  8  2  0  0  0  0
  7 10  2  0  0  0  0
  8  9  1  0  0  0  0
  9 11  2  0  0  0  0
 10 11  1  0  0  0  0
 12 13  1  0  0  0  0
 13 14  3  0  0  0  0
M  END
