1218
 OpenBabel10141417503D

 33 35  0  0  1  0  0  0  0  0999 V2000
    7.2508    1.4067    4.0589 Cl  0  0  0  0  0  0  0  0  0  0  0  0
    6.7222    3.0090    9.1212 Cl  0  0  0  0  0  0  0  0  0  0  0  0
    4.8191    9.2128    7.8435 F   0  0  0  0  0  0  0  0  0  0  0  0
    5.1764   10.5579    6.1743 F   0  0  0  0  0  0  0  0  0  0  0  0
    3.1413   10.0191    6.7206 F   0  0  0  0  0  0  0  0  0  0  0  0
    5.2600    4.2781    0.6664 O   0  0  0  0  0  0  0  0  0  0  0  0
    1.3977    2.6113    0.8799 N   0  0  0  0  0  0  0  0  0  0  0  0
    2.6309    3.1811    1.4900 C   0  0  0  0  0  0  0  0  0  0  0  0
    2.9173    4.6678    1.1645 C   0  0  0  0  0  0  0  0  0  0  0  0
    4.3756    5.0936    1.4486 C   0  0  3  0  0  0  0  0  0  0  0  0
    1.5072    2.5374   -0.5939 C   0  0  0  0  0  0  0  0  0  0  0  0
    1.0305    1.3432    1.5736 C   0  0  0  0  0  0  0  0  0  0  0  0
    4.8103    5.0533    2.9182 C   0  0  0  0  0  0  0  0  0  0  0  0
    2.6547    1.7240   -1.2332 C   0  0  0  0  0  0  0  0  0  0  0  0
   -0.3079    0.6649    1.1865 C   0  0  0  0  0  0  0  0  0  0  0  0
    4.6425    6.1390    3.8089 C   0  0  0  0  0  0  0  0  0  0  0  0
    5.0265    5.9772    5.1904 C   0  0  0  0  0  0  0  0  0  0  0  0
    5.4528    3.8852    3.3790 C   0  0  0  0  0  0  0  0  0  0  0  0
    5.5653    4.7213    5.6404 C   0  0  0  0  0  0  0  0  0  0  0  0
    5.8644    3.7099    4.7293 C   0  0  0  0  0  0  0  0  0  0  0  0
    2.6172    0.2118   -1.0258 C   0  0  0  0  0  0  0  0  0  0  0  0
   -0.4960   -0.7727    1.7177 C   0  0  0  0  0  0  0  0  0  0  0  0
    4.1517    7.4113    3.4260 C   0  0  0  0  0  0  0  0  0  0  0  0
    4.9033    7.0926    6.0436 C   0  0  0  0  0  0  0  0  0  0  0  0
    4.4529    8.3492    5.6340 C   0  0  0  0  0  0  0  0  0  0  0  0
    5.8486    4.4588    7.0231 C   0  0  0  0  0  0  0  0  0  0  0  0
    4.0682    8.4954    4.3054 C   0  0  0  0  0  0  0  0  0  0  0  0
    6.5598    2.5472    5.1695 C   0  0  0  0  0  0  0  0  0  0  0  0
    1.3803   -0.4362   -1.6188 C   0  0  0  0  0  0  0  0  0  0  0  0
   -0.6675   -0.8167    3.2255 C   0  0  0  0  0  0  0  0  0  0  0  0
    6.4285    3.2632    7.4443 C   0  0  0  0  0  0  0  0  0  0  0  0
    6.8027    2.3122    6.5271 C   0  0  0  0  0  0  0  0  0  0  0  0
    4.3937    9.5199    6.5827 C   0  0  0  0  0  0  0  0  0  0  0  0
  1 28  1  0  0  0  0
  2 31  1  0  0  0  0
  3 33  1  0  0  0  0
  4 33  1  0  0  0  0
  5 33  1  0  0  0  0
  6 10  1  0  0  0  0
  7  8  1  0  0  0  0
  7 11  1  0  0  0  0
  7 12  1  0  0  0  0
  8  9  1  0  0  0  0
  9 10  1  0  0  0  0
 10 13  1  0  0  0  0
 11 14  1  0  0  0  0
 12 15  1  0  0  0  0
 13 16  2  0  0  0  0
 13 18  1  0  0  0  0
 14 21  1  0  0  0  0
 15 22  1  0  0  0  0
 16 17  1  0  0  0  0
 16 23  1  0  0  0  0
 17 19  2  0  0  0  0
 17 24  1  0  0  0  0
 18 20  2  0  0  0  0
 19 20  1  0  0  0  0
 19 26  1  0  0  0  0
 20 28  1  0  0  0  0
 21 29  1  0  0  0  0
 22 30  1  0  0  0  0
 23 27  2  0  0  0  0
 24 25  2  0  0  0  0
 25 27  1  0  0  0  0
 25 33  1  0  0  0  0
 26 31  2  0  0  0  0
 28 32  2  0  0  0  0
 31 32  1  0  0  0  0
M  END
