502
 OpenBabel10141417493D

 26 28  0  0  0  0  0  0  0  0999 V2000
    0.5313    0.1593    2.1306 Cl  0  0  0  0  0  0  0  0  0  0  0  0
    9.6668   -1.8157    8.0802 F   0  0  0  0  0  0  0  0  0  0  0  0
    5.9735    0.3145   -1.6263 O   0  0  0  0  0  0  0  0  0  0  0  0
   12.7661    0.1773    2.9626 O   0  0  0  0  0  0  0  0  0  0  0  0
    8.4114    0.2777    1.8038 N   0  0  0  0  0  0  0  0  0  0  0  0
    6.1602    0.2701   -0.1982 C   0  0  0  0  0  0  0  0  0  0  0  0
    7.0321   -0.9741    0.0974 C   0  0  0  0  0  0  0  0  0  0  0  0
    6.9421    1.5398    0.1967 C   0  0  0  0  0  0  0  0  0  0  0  0
    7.6817   -0.9630    1.4897 C   0  0  0  0  0  0  0  0  0  0  0  0
    7.5376    1.4411    1.5980 C   0  0  0  0  0  0  0  0  0  0  0  0
    9.7085    0.3019    1.1063 C   0  0  0  0  0  0  0  0  0  0  0  0
    4.7400    0.2378    0.3920 C   0  0  0  0  0  0  0  0  0  0  0  0
   10.6049    1.5235    1.3514 C   0  0  0  0  0  0  0  0  0  0  0  0
    4.2838   -0.8279    1.1872 C   0  0  0  0  0  0  0  0  0  0  0  0
    3.8164    1.2732    0.1262 C   0  0  0  0  0  0  0  0  0  0  0  0
   10.9557    1.7671    2.8145 C   0  0  0  0  0  0  0  0  0  0  0  0
    2.9921   -0.8524    1.7215 C   0  0  0  0  0  0  0  0  0  0  0  0
    2.5181    1.2522    0.6591 C   0  0  0  0  0  0  0  0  0  0  0  0
   11.7229    0.6033    3.4431 C   0  0  0  0  0  0  0  0  0  0  0  0
    2.1144    0.1897    1.4595 C   0  0  0  0  0  0  0  0  0  0  0  0
   11.1647   -0.0243    4.6784 C   0  0  0  0  0  0  0  0  0  0  0  0
   11.4908   -1.3611    4.9712 C   0  0  0  0  0  0  0  0  0  0  0  0
   10.3429    0.6911    5.5541 C   0  0  0  0  0  0  0  0  0  0  0  0
   10.9779   -1.9677    6.1230 C   0  0  0  0  0  0  0  0  0  0  0  0
    9.8298    0.0820    6.6985 C   0  0  0  0  0  0  0  0  0  0  0  0
   10.1525   -1.2400    6.9733 C   0  0  0  0  0  0  0  0  0  0  0  0
  1 20  1  0  0  0  0
  2 26  1  0  0  0  0
  3  6  1  0  0  0  0
  4 19  2  0  0  0  0
  5  9  1  0  0  0  0
  5 10  1  0  0  0  0
  5 11  1  0  0  0  0
  6  7  1  0  0  0  0
  6  8  1  0  0  0  0
  6 12  1  0  0  0  0
  7  9  1  0  0  0  0
  8 10  1  0  0  0  0
 11 13  1  0  0  0  0
 12 14  2  0  0  0  0
 12 15  1  0  0  0  0
 13 16  1  0  0  0  0
 14 17  1  0  0  0  0
 15 18  2  0  0  0  0
 16 19  1  0  0  0  0
 17 20  2  0  0  0  0
 18 20  1  0  0  0  0
 19 21  1  0  0  0  0
 21 22  2  0  0  0  0
 21 23  1  0  0  0  0
 22 24  1  0  0  0  0
 23 25  2  0  0  0  0
 24 26  2  0  0  0  0
 25 26  1  0  0  0  0
M  END
