1354
 OpenBabel10141417483D

 18 19  0  0  0  0  0  0  0  0999 V2000
    1.1308   -0.0341   -0.2439 O   0  0  0  0  0  0  0  0  0  0  0  0
    4.7573    2.0671    1.7566 O   0  0  0  0  0  0  0  0  0  0  0  0
    4.0917   -2.2770    2.1823 O   0  0  0  0  0  0  0  0  0  0  0  0
    2.8163   -1.2106    0.6598 N   0  0  0  0  0  0  0  0  0  0  0  0
    4.6529   -0.1706    1.6111 N   0  0  0  0  0  0  0  0  0  0  0  0
    3.2630    1.1438    0.0480 C   0  0  0  0  0  0  0  0  0  0  0  0
    4.0715    1.0737   -1.2996 C   0  0  0  0  0  0  0  0  0  0  0  0
    5.3941    1.8415   -1.3112 C   0  0  0  0  0  0  0  0  0  0  0  0
    5.8810    2.3708   -2.6611 C   0  0  0  0  0  0  0  0  0  0  0  0
    2.4693    2.4771    0.0667 C   0  0  0  0  0  0  0  0  0  0  0  0
    6.5240    1.3189   -3.5560 C   0  0  0  0  0  0  0  0  0  0  0  0
    5.7651    0.0027   -3.6579 C   0  0  0  0  0  0  0  0  0  0  0  0
    3.5881    0.4307   -2.3883 C   0  0  0  0  0  0  0  0  0  0  0  0
    4.2507    0.1666   -3.7146 C   0  0  0  0  0  0  0  0  0  0  0  0
    2.2965   -0.0510    0.1510 C   0  0  0  0  0  0  0  0  0  0  0  0
    4.2624    1.0790    1.2156 C   0  0  0  0  0  0  0  0  0  0  0  0
    1.6313    2.7082    1.3239 C   0  0  0  0  0  0  0  0  0  0  0  0
    3.8849   -1.2832    1.4936 C   0  0  0  0  0  0  0  0  0  0  0  0
  1 15  2  0  0  0  0
  2 16  2  0  0  0  0
  3 18  2  0  0  0  0
  4 15  1  0  0  0  0
  4 18  1  0  0  0  0
  5 16  1  0  0  0  0
  5 18  1  0  0  0  0
  6  7  1  0  0  0  0
  6 10  1  0  0  0  0
  6 15  1  0  0  0  0
  6 16  1  0  0  0  0
  7  8  1  0  0  0  0
  7 13  2  0  0  0  0
  8  9  1  0  0  0  0
  9 11  1  0  0  0  0
 10 17  1  0  0  0  0
 11 12  1  0  0  0  0
 12 14  1  0  0  0  0
 13 14  1  0  0  0  0
M  END
