756
 OpenBabel10141417503D

 21 22  0  0  0  0  0  0  0  0999 V2000
    2.8244   -3.1857    2.6993 Cl  0  0  0  0  0  0  0  0  0  0  0  0
    7.3810   -4.9805    1.8511 Cl  0  0  0  0  0  0  0  0  0  0  0  0
    8.2723   -0.8310    4.6830 Cl  0  0  0  0  0  0  0  0  0  0  0  0
    2.2122   -6.4268   -1.3673 Cl  0  0  0  0  0  0  0  0  0  0  0  0
    3.2902   -2.4327    5.7576 Cl  0  0  0  0  0  0  0  0  0  0  0  0
    6.6769   -7.9906    1.1110 Cl  0  0  0  0  0  0  0  0  0  0  0  0
    7.6424   -1.6118    1.8877 O   0  0  0  0  0  0  0  0  0  0  0  0
    3.0538   -3.6847   -0.6017 O   0  0  0  0  0  0  0  0  0  0  0  0
    5.3228   -2.8271    0.8382 C   0  0  0  0  0  0  0  0  0  0  0  0
    5.4261   -2.4180    2.3009 C   0  0  0  0  0  0  0  0  0  0  0  0
    5.0562   -4.3017    0.5573 C   0  0  0  0  0  0  0  0  0  0  0  0
    6.6198   -1.8368    2.7749 C   0  0  0  0  0  0  0  0  0  0  0  0
    3.9120   -4.6682   -0.1803 C   0  0  0  0  0  0  0  0  0  0  0  0
    4.3659   -2.5812    3.2209 C   0  0  0  0  0  0  0  0  0  0  0  0
    5.9307   -5.3352    0.9654 C   0  0  0  0  0  0  0  0  0  0  0  0
    6.7836   -1.4980    4.1231 C   0  0  0  0  0  0  0  0  0  0  0  0
    3.6334   -6.0085   -0.4837 C   0  0  0  0  0  0  0  0  0  0  0  0
    4.5404   -2.2316    4.5753 C   0  0  0  0  0  0  0  0  0  0  0  0
    5.6441   -6.6792    0.6446 C   0  0  0  0  0  0  0  0  0  0  0  0
    5.7501   -1.7022    5.0256 C   0  0  0  0  0  0  0  0  0  0  0  0
    4.4988   -7.0107   -0.0784 C   0  0  0  0  0  0  0  0  0  0  0  0
  1 14  1  0  0  0  0
  2 15  1  0  0  0  0
  3 16  1  0  0  0  0
  4 17  1  0  0  0  0
  5 18  1  0  0  0  0
  6 19  1  0  0  0  0
  7 12  1  0  0  0  0
  8 13  1  0  0  0  0
  9 10  1  0  0  0  0
  9 11  1  0  0  0  0
 10 12  2  0  0  0  0
 10 14  1  0  0  0  0
 11 13  2  0  0  0  0
 11 15  1  0  0  0  0
 12 16  1  0  0  0  0
 13 17  1  0  0  0  0
 14 18  2  0  0  0  0
 15 19  2  0  0  0  0
 16 20  2  0  0  0  0
 17 21  2  0  0  0  0
 18 20  1  0  0  0  0
 19 21  1  0  0  0  0
M  END
