[NO NAME]
 OpenBabel10141417483D
Created with ChemWriter - http://chemwriter.com
 17 18  0  0  0  0  0  0  0  0999 V2000
    1.3920   -0.5081   -0.6287 O   0  0  0  0  0  0  0  0  0  0  0  0
    4.1925    2.3203    1.6840 O   0  0  0  0  0  0  0  0  0  0  0  0
    4.8802   -2.0210    1.8914 O   0  0  0  0  0  0  0  0  0  0  0  0
    3.2781   -1.3254    0.3905 N   0  0  0  0  0  0  0  0  0  0  0  0
    4.7547    0.1591    1.4297 N   0  0  0  0  0  0  0  0  0  0  0  0
    2.5051   -0.2970   -0.1386 C   0  0  0  0  0  0  0  0  0  0  0  0
    4.0406    1.2652    1.0709 C   0  0  0  0  0  0  0  0  0  0  0  0
    4.3452   -1.1248    1.2407 C   0  0  0  0  0  0  0  0  0  0  0  0
    2.7638   -2.6782    0.2699 C   0  0  0  0  0  0  0  0  0  0  0  0
    4.0165    1.3327   -1.4168 C   0  0  0  0  0  0  0  0  0  0  0  0
    4.0739    0.4796   -2.4632 C   0  0  0  0  0  0  0  0  0  0  0  0
    4.9324    0.6729   -3.6831 C   0  0  0  0  0  0  0  0  0  0  0  0
    5.9711    1.7794   -3.5284 C   0  0  0  0  0  0  0  0  0  0  0  0
    5.3643    2.9911   -2.8382 C   0  0  0  0  0  0  0  0  0  0  0  0
    4.8349    2.6194   -1.4508 C   0  0  0  0  0  0  0  0  0  0  0  0
    3.1447    1.1017   -0.1511 C   0  0  3  0  0  0  0  0  0  0  0  0
    2.0067    2.1402   -0.1030 C   0  0  0  0  0  0  0  0  0  0  0  0
  1  6  2  0  0  0  0
  2  7  2  0  0  0  0
  3  8  2  0  0  0  0
  4  6  1  0  0  0  0
  4  8  1  0  0  0  0
  4  9  1  0  0  0  0
  5  7  1  0  0  0  0
  5  8  1  0  0  0  0
 10 11  2  0  0  0  0
 11 12  1  0  0  0  0
 12 13  1  0  0  0  0
 13 14  1  0  0  0  0
 14 15  1  0  0  0  0
 15 10  1  0  0  0  0
 16 10  1  0  0  0  0
 16  7  1  0  0  0  0
 16  6  1  0  0  0  0
 16 17  1  0  0  0  0
M  END
