
 OpenBabel10141417593D

 30 31  0  0  0  0  0  0  0  0999 V2000
    1.9751    1.5442   -2.4218 C   0  0  0  0  0  0  0  0  0  0  0  0
    1.9157    1.8740   -0.9145 C   0  0  0  0  0  0  0  0  0  0  0  0
    3.1812    0.6573   -2.7939 C   0  0  0  0  0  0  0  0  0  0  0  0
    0.7108    2.7708   -0.5473 C   0  0  0  0  0  0  0  0  0  0  0  0
    4.4969   -1.9954   -8.7778 C   0  0  0  0  0  0  0  0  0  0  0  0
   -1.6981    4.1999    5.7115 C   0  0  0  0  0  0  0  0  0  0  0  0
    4.6823   -2.6388  -10.0079 C   0  0  0  0  0  0  0  0  0  0  0  0
   -1.6403    4.4160    7.0939 C   0  0  0  0  0  0  0  0  0  0  0  0
    3.2622    0.3488   -4.3054 C   0  0  0  0  0  0  0  0  0  0  0  0
    0.6523    3.0908    0.9607 C   0  0  0  0  0  0  0  0  0  0  0  0
    5.8760   -0.1569   -9.4950 C   0  0  0  0  0  0  0  0  0  0  0  0
   -1.6671    6.5861    5.3356 C   0  0  0  0  0  0  0  0  0  0  0  0
    4.5721   -0.9933   -5.9610 C   0  0  0  0  0  0  0  0  0  0  0  0
   -0.5427    4.1693    2.7859 C   0  0  0  0  0  0  0  0  0  0  0  0
    5.0916   -0.7458   -8.4927 C   0  0  0  0  0  0  0  0  0  0  0  0
   -1.6935    5.2847    4.8025 C   0  0  0  0  0  0  0  0  0  0  0  0
    5.4518   -2.0351  -10.9790 C   0  0  0  0  0  0  0  0  0  0  0  0
   -1.6035    5.7054    7.5850 C   0  0  0  0  0  0  0  0  0  0  0  0
    6.0533   -0.7995  -10.7205 C   0  0  0  0  0  0  0  0  0  0  0  0
   -1.6257    6.7928    6.7125 C   0  0  0  0  0  0  0  0  0  0  0  0
    4.8423   -0.0271   -7.1642 C   0  0  3  0  0  0  0  0  0  0  0  0
   -1.7448    5.0288    3.2937 C   0  0  3  0  0  0  0  0  0  0  0  0
    4.4253   -0.4922   -4.5837 N   0  0  0  0  0  0  0  0  0  0  0  0
   -0.5305    3.8911    1.3297 N   0  0  0  0  0  0  0  0  0  0  0  0
    5.6479   -2.6050  -12.2058 O   0  0  0  0  0  0  0  0  0  0  0  0
   -1.5595    5.9174    8.9334 O   0  0  0  0  0  0  0  0  0  0  0  0
    6.8182   -0.2100  -11.6874 O   0  0  0  0  0  0  0  0  0  0  0  0
   -1.6119    8.0444    7.2596 O   0  0  0  0  0  0  0  0  0  0  0  0
    3.7525    0.8683   -7.3947 O   0  0  0  0  0  0  0  0  0  0  0  0
   -1.7969    6.2818    2.5937 O   0  0  0  0  0  0  0  0  0  0  0  0
  2  1  1  0  0  0  0
  3  1  1  0  0  0  0
  4  2  1  0  0  0  0
  7  5  2  0  0  0  0
  8  6  2  0  0  0  0
  9  3  1  0  0  0  0
 10  4  1  0  0  0  0
 15  5  1  0  0  0  0
 15 11  2  0  0  0  0
 16  6  1  0  0  0  0
 16 12  2  0  0  0  0
 17  7  1  0  0  0  0
 18  8  1  0  0  0  0
 19 11  1  0  0  0  0
 19 17  2  0  0  0  0
 20 12  1  0  0  0  0
 20 18  2  0  0  0  0
 21 13  1  0  0  0  0
 21 15  1  0  0  0  0
 22 14  1  0  0  0  0
 22 16  1  0  0  0  0
 23  9  1  0  0  0  0
 23 13  1  0  0  0  0
 24 10  1  0  0  0  0
 24 14  1  0  0  0  0
 25 17  1  0  0  0  0
 26 18  1  0  0  0  0
 27 19  1  0  0  0  0
 28 20  1  0  0  0  0
 29 21  1  0  0  0  0
 30 22  1  0  0  0  0
M  END
