
 OpenBabel10141417503D

 22 23  0  0  1  0  0  0  0  0999 V2000
    1.2160    0.8763    1.5541 O   0  0  0  0  0  0  0  0  0  0  0  0
    2.0182    1.1240    0.4686 C   0  0  0  0  0  0  0  0  0  0  0  0
    3.2384    1.9857    0.8487 C   0  0  3  0  0  0  0  0  0  0  0  0
    1.7467    0.8039   -0.6775 O   0  0  0  0  0  0  0  0  0  0  0  0
    4.0454    2.3032   -0.2858 O   0  0  0  0  0  0  0  0  0  0  0  0
    4.1225    1.3356    1.8898 C   0  0  0  0  0  0  0  0  0  0  0  0
    4.3819    1.9689    3.1159 C   0  0  0  0  0  0  0  0  0  0  0  0
    4.7145    0.0868    1.6405 C   0  0  0  0  0  0  0  0  0  0  0  0
    5.5528   -0.5068    2.5853 C   0  0  0  0  0  0  0  0  0  0  0  0
    5.8058    0.1347    3.7950 C   0  0  0  0  0  0  0  0  0  0  0  0
    5.2164    1.3685    4.0632 C   0  0  0  0  0  0  0  0  0  0  0  0
   -1.9175    1.7111    1.8522 C   0  0  3  0  0  0  0  0  0  0  0  0
   -1.0826    1.0409    0.7489 C   0  0  0  0  0  0  0  0  0  0  0  0
   -1.3353    0.1332    3.4961 C   0  0  3  0  0  0  0  0  0  0  0  0
   -0.3820   -0.6396    2.5660 C   0  0  0  0  0  0  0  0  0  0  0  0
    0.0170    0.1084    1.2844 C   0  0  3  0  0  0  0  0  0  0  0  0
   -2.5715    0.6485    2.7254 N   0  3  0  0  0  0  0  0  0  0  0  0
   -2.9744   -3.8400    3.1432 Br  0  5  0  0  0  0  0  0  0  0  0  0
   -0.6707    1.4486    3.9416 C   0  0  0  0  0  0  0  0  0  0  0  0
   -1.0290    2.4710    2.8528 C   0  0  0  0  0  0  0  0  0  0  0  0
   -3.3444   -0.4382    1.9669 C   0  0  0  0  0  0  0  0  0  0  0  0
   -3.6165    1.2462    3.6842 C   0  0  0  0  0  0  0  0  0  0  0  0
  2  1  1  0  0  0  0
  2  4  2  0  0  0  0
  3  2  1  0  0  0  0
  3  6  1  0  0  0  0
  3  5  1  0  0  0  0
  6  8  1  0  0  0  0
  7  6  2  0  0  0  0
  7 11  1  0  0  0  0
  8  9  2  0  0  0  0
  9 10  1  0  0  0  0
 10 11  2  0  0  0  0
 12 17  1  0  0  0  0
 12 20  1  0  0  0  0
 13 12  1  0  0  0  0
 14 17  1  0  0  0  0
 14 19  1  0  0  0  0
 15 14  1  0  0  0  0
 15 16  1  0  0  0  0
 16  1  1  0  0  0  0
 16 13  1  0  0  0  0
 17 21  1  0  0  0  0
 17 22  1  0  0  0  0
 20 19  1  0  0  0  0
M  CHG  2  17   1  18  -1
M  END
