
 OpenBabel10141417483D

 39 43  0  0  1  0  0  0  0  0999 V2000
    2.7030    4.0835   -0.8774 O   0  0  0  0  0  0  0  0  0  0  0  0
    4.2470    3.0859    1.7065 O   0  0  0  0  0  0  0  0  0  0  0  0
    7.9531   -0.2117   -0.9552 O   0  0  0  0  0  0  0  0  0  0  0  0
    9.3953    0.3610   -2.7951 O   0  0  0  0  0  0  0  0  0  0  0  0
    2.0371    2.8664   -2.7033 O   0  0  0  0  0  0  0  0  0  0  0  0
    0.8916    5.9794   -1.1505 O   0  0  0  0  0  0  0  0  0  0  0  0
    0.1204    2.5584   -0.2473 O   0  0  0  0  0  0  0  0  0  0  0  0
    3.1636    4.6881   -6.2856 O   0  0  0  0  0  0  0  0  0  0  0  0
   -1.5425    4.0036    0.3739 O   0  0  0  0  0  0  0  0  0  0  0  0
    6.9653    5.4163   -1.5807 N   0  0  3  0  0  0  0  0  0  0  0  0
    5.6088    4.9988   -1.1602 C   0  0  1  0  0  0  0  0  0  0  0  0
    4.9592    3.7204   -1.8046 C   0  0  2  0  0  0  0  0  0  0  0  0
    4.8086    6.2995   -1.3250 C   0  0  0  0  0  0  0  0  0  0  0  0
    3.8989    3.2833   -0.7563 C   0  0  1  0  0  0  0  0  0  0  0  0
    7.1665    6.7452   -0.9728 C   0  0  0  0  0  0  0  0  0  0  0  0
    5.7945    7.4086   -0.9635 C   0  0  0  0  0  0  0  0  0  0  0  0
    5.5638    4.5879    0.2971 C   0  0  0  0  0  0  0  0  0  0  0  0
    6.0464    2.6906   -2.1705 C   0  0  0  0  0  0  0  0  0  0  0  0
    7.1688    5.5244   -3.0475 C   0  0  0  0  0  0  0  0  0  0  0  0
    4.5967    3.6848    0.5253 C   0  0  0  0  0  0  0  0  0  0  0  0
    6.7585    4.3463   -3.9513 C   0  0  0  0  0  0  0  0  0  0  0  0
    6.9219    3.0211   -3.2509 C   0  0  0  0  0  0  0  0  0  0  0  0
    6.3181    1.5451   -1.4022 C   0  0  0  0  0  0  0  0  0  0  0  0
    8.0307    2.2200   -3.5594 C   0  0  0  0  0  0  0  0  0  0  0  0
    7.4620    0.8262   -1.6895 C   0  0  0  0  0  0  0  0  0  0  0  0
    8.2897    1.1518   -2.7375 C   0  0  0  0  0  0  0  0  0  0  0  0
    1.8968    3.8049   -1.9466 C   0  0  0  0  0  0  0  0  0  0  0  0
    0.7749    4.8783   -2.0473 C   0  0  3  0  0  0  0  0  0  0  0  0
    4.9900    3.5283    2.8452 C   0  0  0  0  0  0  0  0  0  0  0  0
    0.8142    5.4778   -3.4784 C   0  0  0  0  0  0  0  0  0  0  0  0
    9.2590   -0.3549   -1.5520 C   0  0  0  0  0  0  0  0  0  0  0  0
   -0.5740    4.1872   -1.8142 C   0  0  0  0  0  0  0  0  0  0  0  0
    2.1459    6.1404   -3.8798 C   0  0  0  0  0  0  0  0  0  0  0  0
    2.2665    6.7019   -5.3127 C   0  0  0  0  0  0  0  0  0  0  0  0
    2.1819    5.7044   -6.4905 C   0  0  0  0  0  0  0  0  0  0  0  0
   -0.7269    3.6161   -0.4255 C   0  0  0  0  0  0  0  0  0  0  0  0
    0.8108    5.0485   -6.6466 C   0  0  0  0  0  0  0  0  0  0  0  0
    2.5160    6.4243   -7.8048 C   0  0  0  0  0  0  0  0  0  0  0  0
   -0.2616    1.6663    0.7985 C   0  0  0  0  0  0  0  0  0  0  0  0
  1 27  1  0  0  0  0
  2 20  1  0  0  0  0
  2 29  1  0  0  0  0
  3 25  1  0  0  0  0
  3 31  1  0  0  0  0
  4 26  1  0  0  0  0
  4 31  1  0  0  0  0
  5 27  2  0  0  0  0
  6 28  1  0  0  0  0
  7 36  1  0  0  0  0
  7 39  1  0  0  0  0
  8 35  1  0  0  0  0
  9 36  2  0  0  0  0
 10 11  1  0  0  0  0
 10 15  1  0  0  0  0
 10 19  1  0  0  0  0
 11 12  1  0  0  0  0
 11 13  1  1  0  0  0
 11 17  1  0  0  0  0
 12 14  1  0  0  0  0
 12 18  1  1  0  0  0
 13 16  1  0  0  0  0
 14 20  1  0  0  0  0
 14  1  1  6  0  0  0
 15 16  1  0  0  0  0
 17 20  2  0  0  0  0
 18 22  1  0  0  0  0
 18 23  2  0  0  0  0
 19 21  1  0  0  0  0
 21 22  1  0  0  0  0
 22 24  2  0  0  0  0
 23 25  1  0  0  0  0
 24 26  1  0  0  0  0
 25 26  2  0  0  0  0
 27 28  1  0  0  0  0
 28 30  1  0  0  0  0
 28 32  1  0  0  0  0
 30 33  1  0  0  0  0
 32 36  1  0  0  0  0
 33 34  1  0  0  0  0
 34 35  1  0  0  0  0
 35 37  1  0  0  0  0
 35 38  1  0  0  0  0
M  END
