999
 OpenBabel10141418193D

 17 18  0  0  0  0  0  0  0  0999 V2000
    1.0447    0.3397   -0.8811 Cl  0  0  0  0  0  0  0  0  0  0  0  0
    7.1445   -0.2690    0.4074 S   0  0  0  0  0  0  0  0  0  0  0  0
    2.3151   -2.6494   -0.3289 S   0  0  0  0  0  0  0  0  0  0  0  0
    7.6869   -1.2262   -0.5293 O   0  0  0  0  0  0  0  0  0  0  0  0
    7.3016   -0.4023    1.8378 O   0  0  0  0  0  0  0  0  0  0  0  0
    1.6009   -2.6952   -1.5809 O   0  0  0  0  0  0  0  0  0  0  0  0
    3.1314   -3.7530    0.1236 O   0  0  0  0  0  0  0  0  0  0  0  0
    7.7228    1.2300   -0.0505 N   0  0  0  0  0  0  0  0  0  0  0  0
    5.6615    2.3198   -0.1802 N   0  0  0  0  0  0  0  0  0  0  0  0
    1.1815   -2.4341    0.8893 N   0  0  0  0  0  0  0  0  0  0  0  0
    5.4195   -0.1152    0.0900 C   0  0  0  0  0  0  0  0  0  0  0  0
    4.8842    1.1569   -0.1215 C   0  0  0  0  0  0  0  0  0  0  0  0
    6.9419    2.3078    0.4872 C   0  0  0  0  0  0  0  0  0  0  0  0
    4.6384   -1.2747    0.0338 C   0  0  0  0  0  0  0  0  0  0  0  0
    3.2724   -1.1690   -0.2536 C   0  0  0  0  0  0  0  0  0  0  0  0
    3.5232    1.2308   -0.4505 C   0  0  0  0  0  0  0  0  0  0  0  0
    2.7110    0.0843   -0.5037 C   0  0  0  0  0  0  0  0  0  0  0  0
  1 17  1  0  0  0  0
  2  4  2  0  0  0  0
  2  5  2  0  0  0  0
  2  8  1  0  0  0  0
  2 11  1  0  0  0  0
  3  6  2  0  0  0  0
  3  7  2  0  0  0  0
  3 10  1  0  0  0  0
  3 15  1  0  0  0  0
  8 13  1  0  0  0  0
  9 12  1  0  0  0  0
  9 13  1  0  0  0  0
 11 12  1  0  0  0  0
 11 14  2  0  0  0  0
 12 16  2  0  0  0  0
 14 15  1  0  0  0  0
 15 17  2  0  0  0  0
 16 17  1  0  0  0  0
M  END
