1611
 OpenBabel10141417483D

 23 24  0  0  1  0  0  0  0  0999 V2000
   11.8277    8.3799   -1.9942 Cl  0  0  0  0  0  0  0  0  0  0  0  0
   10.5709   -1.6034   -5.5126 O   0  0  0  0  0  0  0  0  0  0  0  0
    9.7556   -3.0884   -2.8536 N   0  0  0  0  0  0  0  0  0  0  0  0
    9.6127    2.3420    0.3391 N   0  0  0  0  0  0  0  0  0  0  0  0
    7.6496    5.6689   -1.3729 N   0  0  0  0  0  0  0  0  0  0  0  0
    9.8495    0.3511   -1.0789 C   0  0  0  0  0  0  0  0  0  0  0  0
    9.4305   -1.0994   -1.3468 C   0  0  0  0  0  0  0  0  0  0  0  0
    9.1442    0.9628    0.1508 C   0  0  3  0  0  0  0  0  0  0  0  0
   10.1742   -1.7073   -2.5462 C   0  0  0  0  0  0  0  0  0  0  0  0
   10.4137   -3.6136   -4.0773 C   0  0  0  0  0  0  0  0  0  0  0  0
    9.4484    0.2118    1.4512 C   0  0  0  0  0  0  0  0  0  0  0  0
    9.9184   -4.0252   -1.7230 C   0  0  0  0  0  0  0  0  0  0  0  0
    8.9782    3.4320   -0.2739 C   0  0  0  0  0  0  0  0  0  0  0  0
   10.0410   -2.9207   -5.4069 C   0  0  0  0  0  0  0  0  0  0  0  0
   11.3061   -4.1255   -1.0885 C   0  0  0  0  0  0  0  0  0  0  0  0
    9.7061    4.6015   -0.6584 C   0  0  0  0  0  0  0  0  0  0  0  0
    7.5865    3.4629   -0.4156 C   0  0  0  0  0  0  0  0  0  0  0  0
    8.9849    5.6784   -1.2118 C   0  0  0  0  0  0  0  0  0  0  0  0
   11.1171    4.7428   -0.5242 C   0  0  0  0  0  0  0  0  0  0  0  0
    6.9843    4.5755   -0.9629 C   0  0  0  0  0  0  0  0  0  0  0  0
    9.6521    6.8273   -1.6162 C   0  0  0  0  0  0  0  0  0  0  0  0
   11.7711    5.9051   -0.9360 C   0  0  0  0  0  0  0  0  0  0  0  0
   11.0349    6.9404   -1.4817 C   0  0  0  0  0  0  0  0  0  0  0  0
  1 23  1  0  0  0  0
  2 14  1  0  0  0  0
  3  9  1  0  0  0  0
  3 10  1  0  0  0  0
  3 12  1  0  0  0  0
  4  8  1  0  0  0  0
  4 13  1  0  0  0  0
  5 18  2  0  0  0  0
  5 20  1  0  0  0  0
  6  7  1  0  0  0  0
  6  8  1  0  0  0  0
  7  9  1  0  0  0  0
  8 11  1  0  0  0  0
 10 14  1  0  0  0  0
 12 15  1  0  0  0  0
 13 16  2  0  0  0  0
 13 17  1  0  0  0  0
 16 18  1  0  0  0  0
 16 19  1  0  0  0  0
 17 20  2  0  0  0  0
 18 21  1  0  0  0  0
 19 22  2  0  0  0  0
 21 23  2  0  0  0  0
 22 23  1  0  0  0  0
M  END
