
 OpenBabel10141418203D

  5  4  0  0  0  0  0  0  0  0999 V2000
    3.2389    0.9007    0.8495 O   0  0  0  0  0  0  0  0  0  0  0  0
    2.4254   -1.6751   -1.4273 O   0  0  0  0  0  0  0  0  0  0  0  0
    2.4525    0.0257    0.0747 N   0  0  0  0  0  0  0  0  0  0  0  0
    4.4054   -0.8587   -0.7092 N   0  0  0  0  0  0  0  0  0  0  0  0
    3.0536   -0.8872   -0.7322 C   0  0  0  0  0  0  0  0  0  0  0  0
  1  3  1  0  0  0  0
  2  5  2  0  0  0  0
  3  5  1  0  0  0  0
  4  5  1  0  0  0  0
M  END
