327
 OpenBabel10141417533D

 21 25  0  0  1  0  0  0  0  0999 V2000
    1.0178   -0.6061   -0.9809 O   0  0  0  0  0  0  0  0  0  0  0  0
   -0.5647   -2.5919   -2.5887 O   0  0  0  0  0  0  0  0  0  0  0  0
    2.5793    1.8764   -0.9209 O   0  0  0  0  0  0  0  0  0  0  0  0
    2.6128   -4.2901    2.5552 N   0  0  0  0  0  0  0  0  0  0  0  0
    1.7067   -2.4950    0.3690 C   0  0  1  0  0  0  0  0  0  0  0  0
    2.1099   -3.9522    0.2329 C   0  0  2  0  0  0  0  0  0  0  0  0
    3.2770   -4.1809    1.2015 C   0  0  1  0  0  0  0  0  0  0  0  0
    0.6374   -1.9566   -0.5814 C   0  0  2  0  0  0  0  0  0  0  0  0
    1.4587   -2.1402    1.8720 C   0  0  0  0  0  0  0  0  0  0  0  0
    2.8319   -1.6190   -0.0261 C   0  0  0  0  0  0  0  0  0  0  0  0
    2.1735   -4.4813   -1.1848 C   0  0  0  0  0  0  0  0  0  0  0  0
    4.4458   -3.0840    1.1404 C   0  0  0  0  0  0  0  0  0  0  0  0
    1.4208   -3.4032    2.7252 C   0  0  0  0  0  0  0  0  0  0  0  0
    4.1108   -1.7631    0.4785 C   0  0  0  0  0  0  0  0  0  0  0  0
    0.7449   -4.3668   -1.7111 C   0  0  0  0  0  0  0  0  0  0  0  0
    0.2486   -2.9160   -1.7498 C   0  0  0  0  0  0  0  0  0  0  0  0
    2.3352   -0.4785   -0.6089 C   0  0  0  0  0  0  0  0  0  0  0  0
    2.1392   -5.6830    2.7564 C   0  0  0  0  0  0  0  0  0  0  0  0
    4.9231   -0.6255    0.4237 C   0  0  0  0  0  0  0  0  0  0  0  0
    3.1020    0.6635   -0.5902 C   0  0  0  0  0  0  0  0  0  0  0  0
    4.4060    0.5934   -0.0848 C   0  0  0  0  0  0  0  0  0  0  0  0
  1 17  1  0  0  0  0
  2 16  2  0  0  0  0
  3 20  1  0  0  0  0
  4 13  1  0  0  0  0
  4 18  1  0  0  0  0
  5  6  1  0  0  0  0
  5  8  1  0  0  0  0
  5  9  1  1  0  0  0
  5 10  1  0  0  0  0
  6  7  1  0  0  0  0
  6 11  1  6  0  0  0
  7  4  1  1  0  0  0
  7 12  1  0  0  0  0
  8  1  1  6  0  0  0
  8 16  1  0  0  0  0
  9 13  1  0  0  0  0
 10 14  2  0  0  0  0
 10 17  1  0  0  0  0
 11 15  1  0  0  0  0
 12 14  1  0  0  0  0
 14 19  1  0  0  0  0
 15 16  1  0  0  0  0
 17 20  2  0  0  0  0
 19 21  2  0  0  0  0
 20 21  1  0  0  0  0
M  END
