774
 OpenBabel10141417513D

 20 21  0  0  0  0  0  0  0  0999 V2000
   -1.3943    1.6899    0.0928 S   0  0  0  0  0  0  0  0  0  0  0  0
    4.0276    1.5853    0.0826 S   0  0  0  0  0  0  0  0  0  0  0  0
    4.9016   -1.1005   -0.0215 F   0  0  0  0  0  0  0  0  0  0  0  0
    3.6224   -2.5875    0.8734 F   0  0  0  0  0  0  0  0  0  0  0  0
    3.6787   -2.3697   -1.2820 F   0  0  0  0  0  0  0  0  0  0  0  0
   -1.3111    2.6757   -0.9604 O   0  0  0  0  0  0  0  0  0  0  0  0
   -1.6513    2.0415    1.4710 O   0  0  0  0  0  0  0  0  0  0  0  0
    4.8008    1.2120   -1.0763 O   0  0  0  0  0  0  0  0  0  0  0  0
    3.7404    2.9605    0.4091 O   0  0  0  0  0  0  0  0  0  0  0  0
   -1.2126   -1.3362   -0.1373 N   0  0  0  0  0  0  0  0  0  0  0  0
   -2.5382    0.5707   -0.3883 N   0  0  0  0  0  0  0  0  0  0  0  0
    4.7787    0.9657    1.4462 N   0  0  0  0  0  0  0  0  0  0  0  0
    0.0876    0.7413    0.0698 C   0  0  0  0  0  0  0  0  0  0  0  0
   -0.0037   -0.6471    0.0027 C   0  0  0  0  0  0  0  0  0  0  0  0
    2.5074    0.6708    0.0488 C   0  0  0  0  0  0  0  0  0  0  0  0
    2.4718   -0.7304   -0.0493 C   0  0  0  0  0  0  0  0  0  0  0  0
    1.3158    1.4078    0.0974 C   0  0  0  0  0  0  0  0  0  0  0  0
   -2.4153   -0.6757    0.3134 C   0  0  0  0  0  0  0  0  0  0  0  0
    1.1998   -1.3592   -0.0904 C   0  0  0  0  0  0  0  0  0  0  0  0
    3.6692   -1.6530   -0.1225 C   0  0  0  0  0  0  0  0  0  0  0  0
  1  6  2  0  0  0  0
  1  7  2  0  0  0  0
  1 11  1  0  0  0  0
  1 13  1  0  0  0  0
  2  8  2  0  0  0  0
  2  9  2  0  0  0  0
  2 12  1  0  0  0  0
  2 15  1  0  0  0  0
  3 20  1  0  0  0  0
  4 20  1  0  0  0  0
  5 20  1  0  0  0  0
 10 14  1  0  0  0  0
 10 18  1  0  0  0  0
 11 18  1  0  0  0  0
 13 14  2  0  0  0  0
 13 17  1  0  0  0  0
 14 19  1  0  0  0  0
 15 16  1  0  0  0  0
 15 17  2  0  0  0  0
 16 19  2  0  0  0  0
 16 20  1  0  0  0  0
M  END
