1275
 OpenBabel10141417513D

 12 13  0  0  0  0  0  0  0  0999 V2000
    0.7386    0.3834    0.1323 N   0  0  0  0  0  0  0  0  0  0  0  0
    2.6922   -0.9269   -0.0600 N   0  0  0  0  0  0  0  0  0  0  0  0
    4.0332   -1.0964   -0.2206 N   0  0  0  0  0  0  0  0  0  0  0  0
    0.0548    0.9167   -1.0079 N   0  0  0  0  0  0  0  0  0  0  0  0
    2.9705    1.4718    0.0348 C   0  0  0  0  0  0  0  0  0  0  0  0
    4.3557    1.2887   -0.1408 C   0  0  0  0  0  0  0  0  0  0  0  0
    2.1597    0.3144    0.0425 C   0  0  0  0  0  0  0  0  0  0  0  0
    2.4990    2.7944    0.2234 C   0  0  0  0  0  0  0  0  0  0  0  0
    5.2216    2.3981   -0.1720 C   0  0  0  0  0  0  0  0  0  0  0  0
    3.3657    3.8894    0.1951 C   0  0  0  0  0  0  0  0  0  0  0  0
    4.8294   -0.0113   -0.2671 C   0  0  0  0  0  0  0  0  0  0  0  0
    4.7259    3.6912   -0.0105 C   0  0  0  0  0  0  0  0  0  0  0  0
  1  4  1  0  0  0  0
  1  7  1  0  0  0  0
  2  3  1  0  0  0  0
  2  7  2  0  0  0  0
  3 11  2  0  0  0  0
  5  6  1  0  0  0  0
  5  7  1  0  0  0  0
  5  8  2  0  0  0  0
  6  9  2  0  0  0  0
  6 11  1  0  0  0  0
  8 10  1  0  0  0  0
  9 12  1  0  0  0  0
 10 12  2  0  0  0  0
M  END
