
 OpenBabel10141417593D

 92103  0  0  1  0  0  0  0  0999 V2000
   14.0981    0.4680   10.1821 C   0  0  0  0  0  0  0  0  0  0  0  0
   13.0760    0.9077    8.8505 N   0  0  0  0  0  0  0  0  0  0  0  0
   11.7244    0.6049    6.7966 N   0  0  0  0  0  0  0  0  0  0  0  0
   11.5305    0.6158    5.4082 C   0  0  0  0  0  0  0  0  0  0  0  0
   11.9845    1.8691    4.4007 C   0  0  1  0  0  0  0  0  0  0  0  0
   11.9653    1.9682    2.6680 C   0  0  0  0  0  0  0  0  0  0  0  0
   12.3450    3.0438    1.5040 C   0  0  0  0  0  0  0  0  0  0  0  0
   12.1254    2.6061    0.0254 C   0  0  0  0  0  0  0  0  0  0  0  0
   13.0389    2.0308   -0.5560 O   0  0  0  0  0  0  0  0  0  0  0  0
   10.5786   -1.2760    5.4210 C   0  0  0  0  0  0  0  0  0  0  0  0
   10.3685   -1.1268    6.9882 N   0  0  0  0  0  0  0  0  0  0  0  0
    9.8399   -2.2419    7.0554 C   0  0  0  0  0  0  0  0  0  0  0  0
    9.8645   -2.5718    8.1872 C   0  0  0  0  0  0  0  0  0  0  0  0
   11.1198   -2.9355    8.2181 C   0  0  0  0  0  0  0  0  0  0  0  0
   12.1311   -1.7320    8.1156 N   0  0  0  0  0  0  0  0  0  0  0  0
   12.8729   -2.2594    9.1934 C   0  0  0  0  0  0  0  0  0  0  0  0
   12.1498   -4.1744    9.6896 C   0  0  1  0  0  0  0  0  0  0  0  0
   11.5833   -6.0410    9.9114 C   0  0  0  0  0  0  0  0  0  0  0  0
   10.8318   -7.2924   10.7639 C   0  0  0  0  0  0  0  0  0  0  0  0
   10.6307   -8.8866   10.4179 C   0  0  0  0  0  0  0  0  0  0  0  0
    9.6199   -9.1794    9.7852 O   0  0  0  0  0  0  0  0  0  0  0  0
   11.2174   -4.3120    8.5343 C   0  0  0  0  0  0  0  0  0  0  0  0
   12.2316   -4.9201    7.5840 C   0  0  0  0  0  0  0  0  0  0  0  0
    9.5041   -4.9982    8.4831 C   0  0  0  0  0  0  0  0  0  0  0  0
   10.9345   -0.3617    4.7076 C   0  0  0  0  0  0  0  0  0  0  0  0
   10.6566   -0.3967    3.1790 C   0  0  0  0  0  0  0  0  0  0  0  0
   13.8713   -1.1790   10.2531 C   0  0  0  0  0  0  0  0  0  0  0  0
   14.4685   -2.1867   11.3106 C   0  0  0  0  0  0  0  0  0  0  0  0
   13.4392    2.5502    7.8170 C   0  0  1  0  0  0  0  0  0  0  0  0
   11.9393    2.2884    6.8762 C   0  0  2  0  0  0  0  0  0  0  0  0
   10.5879    2.9951    7.3980 C   0  0  0  0  0  0  0  0  0  0  0  0
   16.0504    2.2642    7.6321 C   0  0  0  0  0  0  0  0  0  0  0  0
   15.2389    1.6679    8.6621 C   0  0  0  0  0  0  0  0  0  0  0  0
   15.9310    0.6338    8.9267 O   0  0  0  0  0  0  0  0  0  0  0  0
   13.7637    2.6769    9.9805 N   0  0  0  0  0  0  0  0  0  0  0  0
   13.7394    4.0148   11.0112 C   0  0  0  0  0  0  0  0  0  0  0  0
   12.9475    5.0421   12.1304 C   0  0  2  0  0  0  0  0  0  0  0  0
   15.6287    3.1627    9.0226 C   0  0  0  0  0  0  0  0  0  0  0  0
   15.8001    2.5422   10.6738 C   0  0  1  0  0  0  0  0  0  0  0  0
   16.2540    4.1541   11.6519 C   0  0  0  0  0  0  0  0  0  0  0  0
   10.9620    2.8073   -0.6501 N   0  0  0  0  0  0  0  0  0  0  0  0
   11.4620   -9.9386   10.7325 N   0  0  0  0  0  0  0  0  0  0  0  0
   10.6215   -3.6144   11.8683 C   0  0  0  0  0  0  0  0  0  0  0  0
   12.4243   -2.2167   13.3857 C   0  0  0  0  0  0  0  0  0  0  0  0
   11.0099   -2.2311   11.0746 C   0  0  0  0  0  0  0  0  0  0  0  0
   10.8512   -0.1749   10.7980 C   0  0  0  0  0  0  0  0  0  0  0  0
   11.7359   -1.6857   12.1389 C   0  0  0  0  0  0  0  0  0  0  0  0
   10.8015   -1.0760    9.7848 N   0  0  0  0  0  0  0  0  0  0  0  0
   11.7094   -0.4816   11.9396 N   0  0  0  0  0  0  0  0  0  0  0  0
   11.2336   -4.1523   13.2874 C   0  0  0  0  0  0  0  0  0  0  0  0
   10.8535   -5.3479   14.2906 C   0  0  0  0  0  0  0  0  0  0  0  0
   12.2679   -3.4444   13.9104 C   0  0  0  0  0  0  0  0  0  0  0  0
   13.1119   -3.8882   15.2499 C   0  0  0  0  0  0  0  0  0  0  0  0
   12.6471    0.3845   12.7200 C   0  0  1  0  0  0  0  0  0  0  0  0
   12.9890    0.5249   14.0999 O   0  0  0  0  0  0  0  0  0  0  0  0
   13.6212    1.8155   13.9187 C   0  0  2  0  0  0  0  0  0  0  0  0
   14.3503    2.5385   15.1104 C   0  0  0  0  0  0  0  0  0  0  0  0
   14.9244    3.7893   14.8017 O   0  0  0  0  0  0  0  0  0  0  0  0
   11.9489    1.5740   12.5556 C   0  0  2  0  0  0  0  0  0  0  0  0
   12.0183    2.0542   11.3544 O   0  0  0  0  0  0  0  0  0  0  0  0
   12.4064    2.6100   13.2647 C   0  0  2  0  0  0  0  0  0  0  0  0
   11.2013    3.4583   13.1559 O   0  0  0  0  0  0  0  0  0  0  0  0
   11.3257   -0.4126    8.1463 Co  0  3  0  0  0  0  0  0  0  0  0  0
   10.0414    0.8214    8.4294 O   0  0  0  0  0  0  0  0  0  0  0  0
   10.4285   -3.3499    5.7733 C   0  0  1  0  0  0  0  0  0  0  0  0
   10.3217   -4.9422    5.4816 C   0  0  0  0  0  0  0  0  0  0  0  0
   10.9104   -5.8788    4.2494 C   0  0  0  0  0  0  0  0  0  0  0  0
   10.5257   -7.3511    4.4452 C   0  0  0  0  0  0  0  0  0  0  0  0
   11.2677   -8.0806    5.0885 O   0  0  0  0  0  0  0  0  0  0  0  0
    9.3714   -7.8635    3.9379 N   0  0  0  0  0  0  0  0  0  0  0  0
   15.8873    3.8512    9.2529 C   0  0  1  0  0  0  0  0  0  0  0  0
   17.8564    3.8685    9.4797 C   0  0  0  0  0  0  0  0  0  0  0  0
   18.4037    4.9558   10.5189 C   0  0  0  0  0  0  0  0  0  0  0  0
   18.8692    5.9873   10.0719 O   0  0  0  0  0  0  0  0  0  0  0  0
   18.5754    4.7083   11.8737 N   0  0  0  0  0  0  0  0  0  0  0  0
   11.6605    3.1017    5.1785 C   0  0  1  0  0  0  0  0  0  0  0  0
   12.4367    4.4934    4.5942 C   0  0  0  0  0  0  0  0  0  0  0  0
   12.1610    5.1134    3.1829 C   0  0  0  0  0  0  0  0  0  0  0  0
   12.8272    4.7246    2.0440 N   0  0  0  0  0  0  0  0  0  0  0  0
   11.2905    5.9486    3.0649 O   0  0  0  0  0  0  0  0  0  0  0  0
   10.1485    3.5107    4.5196 C   0  0  0  0  0  0  0  0  0  0  0  0
   10.2810   -2.6588    4.5415 C   0  0  1  0  0  0  0  0  0  0  0  0
    8.8615   -2.7016    3.9251 C   0  0  0  0  0  0  0  0  0  0  0  0
   11.2669   -3.3388    3.3083 C   0  0  0  0  0  0  0  0  0  0  0  0
   10.9935   -4.6529    2.4658 C   0  0  0  0  0  0  0  0  0  0  0  0
   11.3162   -5.7269    2.9699 O   0  0  0  0  0  0  0  0  0  0  0  0
   10.3138   -4.7011    1.2775 N   0  0  0  0  0  0  0  0  0  0  0  0
   10.4112    4.3975   11.7408 P   0  0  3  0  0  0  0  0  0  0  0  0
   11.7414    5.5291   11.6148 O   0  0  0  0  0  0  0  0  0  0  0  0
   10.2364    3.2414   10.7074 O   0  0  0  0  0  0  0  0  0  0  0  0
   13.5387    6.2644   12.9437 C   0  0  0  0  0  0  0  0  0  0  0  0
   11.2779    4.6220   10.2354 O   0  5  0  0  0  0  0  0  0  0  0  0
  1  2  1  0  0  0  0
  2 63  1  0  0  0  0
  3  4  2  0  0  0  0
  3 63  8  0  0  0  0
  4 25  1  0  0  0  0
  5  4  1  0  0  0  0
  5  6  1  6  0  0  0
  6  7  1  0  0  0  0
  7  8  1  0  0  0  0
  8 41  1  0  0  0  0
  8  9  2  0  0  0  0
 10 11  1  0  0  0  0
 10 82  1  0  0  0  0
 11 12  2  0  0  0  0
 11 63  8  0  0  0  0
 12 13  1  0  0  0  0
 12 65  1  0  0  0  0
 13 14  2  0  0  0  0
 14 15  1  0  0  0  0
 14 22  1  0  0  0  0
 15 16  2  0  0  0  0
 15 63  8  0  0  0  0
 16 17  1  0  0  0  0
 17 22  1  0  0  0  0
 17 18  1  1  0  0  0
 18 19  1  0  0  0  0
 19 20  1  0  0  0  0
 20 42  1  0  0  0  0
 20 21  2  0  0  0  0
 22 23  1  0  0  0  0
 22 24  1  0  0  0  0
 25 10  2  0  0  0  0
 25 26  1  0  0  0  0
 27  1  2  0  0  0  0
 27 16  1  0  0  0  0
 27 28  1  0  0  0  0
 29  2  1  1  0  0  0
 29 71  1  0  0  0  0
 29 30  1  0  0  0  0
 30  3  1  0  0  0  0
 30 76  1  0  0  0  0
 30 31  1  1  0  0  0
 32 33  1  0  0  0  0
 33 35  1  0  0  0  0
 33 34  2  0  0  0  0
 36 35  1  0  0  0  0
 37 36  1  0  0  0  0
 37 89  1  0  0  0  0
 37 91  1  6  0  0  0
 38 32  1  0  0  0  0
 39  1  1  0  0  0  0
 39 38  1  0  0  0  0
 39 40  1  6  0  0  0
 43 45  2  0  0  0  0
 43 50  1  0  0  0  0
 44 52  1  0  0  0  0
 45 48  1  0  0  0  0
 45 47  1  0  0  0  0
 46 49  1  0  0  0  0
 46 48  2  0  0  0  0
 47 44  2  0  0  0  0
 48 63  8  0  0  0  0
 49 47  1  0  0  0  0
 50 51  1  0  0  0  0
 52 50  2  0  0  0  0
 52 53  1  0  0  0  0
 54 49  1  6  0  0  0
 54 59  1  0  0  0  0
 54 55  1  0  0  0  0
 56 55  1  0  0  0  0
 56 57  1  1  0  0  0
 57 58  1  0  0  0  0
 59 61  1  0  0  0  0
 59 60  1  6  0  0  0
 61 56  1  0  0  0  0
 61 62  1  6  0  0  0
 62 88  1  0  0  0  0
 63 64  1  0  0  0  0
 65 82  1  0  0  0  0
 65 66  1  6  0  0  0
 66 67  1  0  0  0  0
 67 68  1  0  0  0  0
 68 70  1  0  0  0  0
 68 69  2  0  0  0  0
 71 39  1  0  0  0  0
 71 72  1  6  0  0  0
 72 73  1  0  0  0  0
 73 75  1  0  0  0  0
 73 74  2  0  0  0  0
 76  5  1  0  0  0  0
 76 77  1  6  0  0  0
 76 81  1  0  0  0  0
 77 78  1  0  0  0  0
 78 80  2  0  0  0  0
 78 79  1  0  0  0  0
 82 84  1  6  0  0  0
 82 83  1  0  0  0  0
 84 85  1  0  0  0  0
 85 87  1  0  0  0  0
 85 86  2  0  0  0  0
 88 89  1  0  0  0  0
 88 90  2  0  0  0  0
 88 92  1  0  0  0  0
M  CHG  2  63   1  92  -1
M  END
