
 OpenBabel10141417493D

 34 37  0  0  1  0  0  0  0  0999 V2000
    6.2372    0.7704   -3.2513 C   0  0  0  0  0  0  0  0  0  0  0  0
    5.0168    1.4606   -3.8508 C   0  0  0  0  0  0  0  0  0  0  0  0
    3.9056    0.4893   -4.1423 C   0  0  0  0  0  0  0  0  0  0  0  0
    3.7524   -0.6846   -3.2593 C   0  0  0  0  0  0  0  0  0  0  0  0
    4.6608   -0.9905   -2.3180 C   0  0  0  0  0  0  0  0  0  0  0  0
    5.9716   -0.2518   -2.0999 C   0  0  1  0  0  0  0  0  0  0  0  0
    5.9805    0.3815   -0.6426 C   0  0  2  0  0  0  0  0  0  0  0  0
    4.3587   -2.0522   -1.2986 C   0  0  0  0  0  0  0  0  0  0  0  0
    4.2822   -1.4229    0.0950 C   0  0  0  0  0  0  0  0  0  0  0  0
    5.5573   -0.6384    0.4723 C   0  0  1  0  0  0  0  0  0  0  0  0
    5.3530    2.3312    0.8517 C   0  0  0  0  0  0  0  0  0  0  0  0
    5.1520    1.6724   -0.5082 C   0  0  2  0  0  0  0  0  0  0  0  0
    5.5975   -0.0156    1.9108 C   0  0  1  0  0  0  0  0  0  0  0  0
    5.1332    1.4659    2.1118 C   0  0  1  0  0  0  0  0  0  0  0  0
    3.6569    1.3686    2.7191 C   0  0  2  0  0  0  0  0  0  0  0  0
    4.8198   -0.7677    2.9975 C   0  0  0  0  0  0  0  0  0  0  0  0
    3.4425   -0.1266    2.9992 C   0  0  0  0  0  0  0  0  0  0  0  0
    3.0749    0.6930   -5.0259 O   0  0  0  0  0  0  0  0  0  0  0  0
    7.1506   -1.2671   -2.2037 C   0  0  0  0  0  0  0  0  0  0  0  0
    6.0966    2.0907    3.1821 C   0  0  0  0  0  0  0  0  0  0  0  0
    3.7786    1.4410   -0.7608 O   0  0  0  0  0  0  0  0  0  0  0  0
    2.4548    1.9840    1.9512 C   0  0  0  0  0  0  0  0  0  0  0  0
    2.6017    2.9712    1.2219 O   0  0  0  0  0  0  0  0  0  0  0  0
    1.0434    1.4069    2.2093 C   0  0  0  0  0  0  0  0  0  0  0  0
   -0.0050    2.3756    2.1837 O   0  0  0  0  0  0  0  0  0  0  0  0
   -0.1732    3.1030    3.3348 C   0  0  0  0  0  0  0  0  0  0  0  0
    0.3138    2.8138    4.4055 O   0  0  0  0  0  0  0  0  0  0  0  0
   -1.0879    4.3267    3.1115 C   0  0  0  0  0  0  0  0  0  0  0  0
   -1.0424    4.8791    1.7412 N   0  0  0  0  0  0  0  0  0  0  0  0
   -1.9959    5.9565    1.4812 C   0  0  0  0  0  0  0  0  0  0  0  0
   -3.4436    5.4834    1.5544 C   0  0  0  0  0  0  0  0  0  0  0  0
    0.2838    5.1725    1.1892 C   0  0  0  0  0  0  0  0  0  0  0  0
    1.2240    6.1091    1.9336 C   0  0  0  0  0  0  0  0  0  0  0  0
    3.5994    2.0174    4.0060 O   0  0  0  0  0  0  0  0  0  0  0  0
  1  2  1  0  0  0  0
  1  6  1  0  0  0  0
  2  3  1  0  0  0  0
  3  4  1  0  0  0  0
  3 18  2  0  0  0  0
  4  5  2  0  0  0  0
  5  8  1  0  0  0  0
  6  5  1  0  0  0  0
  6 19  1  1  0  0  0
  7  6  1  6  0  0  0
  7 10  1  0  0  0  0
  8  9  1  0  0  0  0
 10  9  1  1  0  0  0
 10 13  1  0  0  0  0
 11 12  1  0  0  0  0
 11 14  1  0  0  0  0
 12  7  1  0  0  0  0
 12 21  1  1  0  0  0
 13 16  1  1  0  0  0
 14 13  1  0  0  0  0
 14 20  1  6  0  0  0
 15 14  1  0  0  0  0
 15 17  1  0  0  0  0
 15 34  1  1  0  0  0
 15 22  1  0  0  0  0
 16 17  1  0  0  0  0
 22 23  2  0  0  0  0
 22 24  1  0  0  0  0
 24 25  1  0  0  0  0
 25 26  1  0  0  0  0
 26 27  2  0  0  0  0
 26 28  1  0  0  0  0
 28 29  1  0  0  0  0
 29 30  1  0  0  0  0
 29 32  1  0  0  0  0
 30 31  1  0  0  0  0
 32 33  1  0  0  0  0
M  END
