1040
 OpenBabel10141417503D

 35 34  0  0  0  0  0  0  0  0999 V2000
   -1.0388    0.7515    1.8029 S   0  0  0  0  0  0  0  0  0  0  0  0
   -0.2959    0.9365   -3.0715 S   0  0  0  0  0  0  0  0  0  0  0  0
    3.1759   -1.4735   -1.2022 O   0  0  0  0  0  0  0  0  0  0  0  0
   -0.9092   -0.3647    0.6456 O   0  0  0  0  0  0  0  0  0  0  0  0
   -1.5412    1.9368   -3.3087 O   0  0  0  0  0  0  0  0  0  0  0  0
    1.7432    0.8779    4.6557 O   0  0  0  0  0  0  0  0  0  0  0  0
    3.3787    2.3411   -3.6388 O   0  0  0  0  0  0  0  0  0  0  0  0
   -2.2059    0.4303    2.6001 O   0  0  0  0  0  0  0  0  0  0  0  0
   -0.8537    2.0392    1.1824 O   0  0  0  0  0  0  0  0  0  0  0  0
   -0.3921   -0.0548   -4.1262 O   0  0  0  0  0  0  0  0  0  0  0  0
   -0.2879    0.5775   -1.6754 O   0  0  0  0  0  0  0  0  0  0  0  0
   -3.5688   -6.6828    1.7286 N   0  0  0  0  0  0  0  0  0  0  0  0
   -2.7391   -8.3783    0.4486 N   0  0  0  0  0  0  0  0  0  0  0  0
    8.8198   -2.9921   -2.6370 N   0  0  0  0  0  0  0  0  0  0  0  0
    8.1345   -1.3488   -1.2174 N   0  0  0  0  0  0  0  0  0  0  0  0
    0.1814   -4.5229   -0.9806 C   0  0  0  0  0  0  0  0  0  0  0  0
    3.6437   -3.6442   -2.1714 C   0  0  0  0  0  0  0  0  0  0  0  0
   -1.8909   -6.1525    0.0610 C   0  0  0  0  0  0  0  0  0  0  0  0
    1.3212   -3.8336   -1.2040 C   0  0  0  0  0  0  0  0  0  0  0  0
    2.4510   -4.2530   -2.0158 C   0  0  0  0  0  0  0  0  0  0  0  0
   -0.8128   -3.9560   -0.0603 C   0  0  0  0  0  0  0  0  0  0  0  0
   -0.1357   -5.8017   -1.6191 C   0  0  0  0  0  0  0  0  0  0  0  0
   -1.7977   -4.7284    0.4353 C   0  0  0  0  0  0  0  0  0  0  0  0
   -1.1062   -6.5836   -1.1129 C   0  0  0  0  0  0  0  0  0  0  0  0
    3.9958   -2.3101   -1.5610 C   0  0  0  0  0  0  0  0  0  0  0  0
    4.6811   -4.2941   -2.9644 C   0  0  0  0  0  0  0  0  0  0  0  0
    6.3585   -2.7447   -2.1128 C   0  0  0  0  0  0  0  0  0  0  0  0
    5.4455   -2.0081   -1.4560 C   0  0  0  0  0  0  0  0  0  0  0  0
    5.9490   -3.8585   -2.9479 C   0  0  0  0  0  0  0  0  0  0  0  0
   -2.7090   -7.0274    0.7146 C   0  0  0  0  0  0  0  0  0  0  0  0
    0.4201    0.3157    2.7203 C   0  0  0  0  0  0  0  0  0  0  0  0
    1.0155    2.0786   -3.4353 C   0  0  0  0  0  0  0  0  0  0  0  0
    7.8100   -2.3463   -1.9814 C   0  0  0  0  0  0  0  0  0  0  0  0
    0.5682    1.2204    3.9232 C   0  0  0  0  0  0  0  0  0  0  0  0
    2.3603    1.4004   -3.3052 C   0  0  0  0  0  0  0  0  0  0  0  0
  1  4  1  0  0  0  0
  1  8  2  0  0  0  0
  1  9  2  0  0  0  0
  1 31  1  0  0  0  0
  2  5  1  0  0  0  0
  2 10  2  0  0  0  0
  2 11  2  0  0  0  0
  2 32  1  0  0  0  0
  3 25  2  0  0  0  0
  6 34  1  0  0  0  0
  7 35  1  0  0  0  0
 12 30  1  0  0  0  0
 13 30  1  0  0  0  0
 14 33  1  0  0  0  0
 15 33  2  0  0  0  0
 16 19  2  0  0  0  0
 16 21  1  0  0  0  0
 16 22  1  0  0  0  0
 17 20  2  0  0  0  0
 17 25  1  0  0  0  0
 17 26  1  0  0  0  0
 18 23  1  0  0  0  0
 18 24  1  0  0  0  0
 18 30  2  0  0  0  0
 19 20  1  0  0  0  0
 21 23  2  0  0  0  0
 22 24  2  0  0  0  0
 25 28  1  0  0  0  0
 26 29  2  0  0  0  0
 27 28  2  0  0  0  0
 27 29  1  0  0  0  0
 27 33  1  0  0  0  0
 31 34  1  0  0  0  0
 32 35  1  0  0  0  0
M  END
