956
 OpenBabel10141417523D

 22 26  0  0  1  0  0  0  0  0999 V2000
    0.8550   -0.3057   -0.7086 O   0  0  0  0  0  0  0  0  0  0  0  0
    0.3026   -1.6721   -3.1147 O   0  0  0  0  0  0  0  0  0  0  0  0
    2.6605    1.8277   -1.1767 O   0  0  0  0  0  0  0  0  0  0  0  0
    2.6064   -3.8694    2.5061 N   0  0  0  0  0  0  0  0  0  0  0  0
    1.3730   -2.4101    0.3502 C   0  0  1  0  0  0  0  0  0  0  0  0
    1.7582   -3.8741    0.1268 C   0  0  2  0  0  0  0  0  0  0  0  0
    2.9501   -4.1696    1.0925 C   0  0  1  0  0  0  0  0  0  0  0  0
    0.4745   -1.7103   -0.6838 C   0  0  2  0  0  0  0  0  0  0  0  0
    0.8646   -2.2219    1.8031 C   0  0  0  0  0  0  0  0  0  0  0  0
    2.5757   -1.5499    0.1324 C   0  0  0  0  0  0  0  0  0  0  0  0
    2.0406   -4.1932   -1.3457 C   0  0  0  0  0  0  0  0  0  0  0  0
    4.2171   -3.3178    0.7477 C   0  0  0  0  0  0  0  0  0  0  0  0
    1.2417   -3.3939    2.7251 C   0  0  0  0  0  0  0  0  0  0  0  0
    3.8937   -1.8964    0.3638 C   0  0  0  0  0  0  0  0  0  0  0  0
    0.8431   -3.8013   -2.1991 C   0  0  0  0  0  0  0  0  0  0  0  0
    0.5640   -2.3172   -2.0970 C   0  0  0  0  0  0  0  0  0  0  0  0
    2.2014   -0.3362   -0.4155 C   0  0  0  0  0  0  0  0  0  0  0  0
    2.9369   -4.9768    3.3990 C   0  0  0  0  0  0  0  0  0  0  0  0
    4.8538   -0.9175    0.1113 C   0  0  0  0  0  0  0  0  0  0  0  0
    3.1316    0.6561   -0.6628 C   0  0  0  0  0  0  0  0  0  0  0  0
    4.4727    0.3543   -0.3772 C   0  0  0  0  0  0  0  0  0  0  0  0
    3.6224    2.8133   -1.5228 C   0  0  0  0  0  0  0  0  0  0  0  0
  1 17  1  0  0  0  0
  2 16  2  0  0  0  0
  3 20  1  0  0  0  0
  3 22  1  0  0  0  0
  4 13  1  0  0  0  0
  4 18  1  0  0  0  0
  5  6  1  0  0  0  0
  5  8  1  0  0  0  0
  5  9  1  1  0  0  0
  5 10  1  0  0  0  0
  6  7  1  0  0  0  0
  6 11  1  6  0  0  0
  7  4  1  1  0  0  0
  7 12  1  0  0  0  0
  8  1  1  6  0  0  0
  8 16  1  0  0  0  0
  9 13  1  0  0  0  0
 10 14  2  0  0  0  0
 10 17  1  0  0  0  0
 11 15  1  0  0  0  0
 12 14  1  0  0  0  0
 14 19  1  0  0  0  0
 15 16  1  0  0  0  0
 17 20  2  0  0  0  0
 19 21  2  0  0  0  0
 20 21  1  0  0  0  0
M  END
