
 OpenBabel10141417533D

  9  9  0  0  0  0  0  0  0  0999 V2000
   -0.6474   -1.0774    0.0286 C   0  0  0  0  0  0  0  0  0  0  0  0
    0.8715   -1.1120    0.0579 C   0  0  1  0  0  0  0  0  0  0  0  0
    1.2504    0.2859   -0.4147 C   0  0  0  0  0  0  0  0  0  0  0  0
    0.2786    1.1459    0.2698 N   0  0  0  0  0  0  0  0  0  0  0  0
   -0.9892    0.3790    0.3490 C   0  0  3  0  0  0  0  0  0  0  0  0
   -1.6007    0.4948    1.7433 C   0  0  0  0  0  0  0  0  0  0  0  0
   -0.7117    0.3359    2.7495 O   0  0  0  0  0  0  0  0  0  0  0  0
   -2.7857    0.6624    1.9890 O   0  0  0  0  0  0  0  0  0  0  0  0
    1.3229   -1.3306    1.3937 O   0  0  0  0  0  0  0  0  0  0  0  0
  1  2  1  0  0  0  0
  1  5  1  0  0  0  0
  2  3  1  0  0  0  0
  2  9  1  1  0  0  0
  3  4  1  0  0  0  0
  4  5  1  0  0  0  0
  5  6  1  0  0  0  0
  6  7  1  0  0  0  0
  6  8  2  0  0  0  0
M  END
