
 OpenBabel10141417503D

 21 23  0  0  1  0  0  0  0  0999 V2000
    1.0541   -0.5366   -0.7220 O   0  0  0  0  0  0  0  0  0  0  0  0
    2.4118   -0.5976   -0.5723 C   0  0  0  0  0  0  0  0  0  0  0  0
    3.0898    0.2546   -1.6299 C   0  0  2  0  0  0  0  0  0  0  0  0
    2.9963   -1.2340    0.2941 O   0  0  0  0  0  0  0  0  0  0  0  0
    4.6111    0.0993   -1.5226 C   0  0  0  0  0  0  0  0  0  0  0  0
    5.0128   -1.2537   -1.7584 O   0  0  0  0  0  0  0  0  0  0  0  0
    2.6652    1.7148   -1.5235 C   0  0  0  0  0  0  0  0  0  0  0  0
    2.8511    2.4520   -0.3410 C   0  0  0  0  0  0  0  0  0  0  0  0
    2.0499    2.3439   -2.6164 C   0  0  0  0  0  0  0  0  0  0  0  0
    1.6350    3.6750   -2.5304 C   0  0  0  0  0  0  0  0  0  0  0  0
    1.8216    4.3925   -1.3513 C   0  0  0  0  0  0  0  0  0  0  0  0
    2.4287    3.7808   -0.2571 C   0  0  0  0  0  0  0  0  0  0  0  0
   -0.8790   -3.2060   -0.3536 C   0  0  2  0  0  0  0  0  0  0  0  0
    0.2799   -2.5655    0.4250 C   0  0  0  0  0  0  0  0  0  0  0  0
   -0.8788   -2.8202   -1.8371 C   0  0  0  0  0  0  0  0  0  0  0  0
   -1.7197   -1.5417   -1.9053 C   0  0  0  0  0  0  0  0  0  0  0  0
   -2.1457   -1.2873   -0.4556 C   0  0  2  0  0  0  0  0  0  0  0  0
   -1.1262   -0.4040    0.2846 C   0  0  0  0  0  0  0  0  0  0  0  0
    0.2776   -1.0295    0.3879 C   0  0  2  0  0  0  0  0  0  0  0  0
   -2.1755   -2.6617    0.0551 N   0  0  0  0  0  0  0  0  0  0  0  0
   -2.5056   -2.8191    1.4605 C   0  0  0  0  0  0  0  0  0  0  0  0
  2  1  1  0  0  0  0
  2  4  2  0  0  0  0
  3  2  1  1  0  0  0
  3  7  1  0  0  0  0
  3  5  1  0  0  0  0
  6  5  1  0  0  0  0
  7  9  1  0  0  0  0
  8  7  2  0  0  0  0
  8 12  1  0  0  0  0
  9 10  2  0  0  0  0
 10 11  1  0  0  0  0
 11 12  2  0  0  0  0
 13 14  1  1  0  0  0
 13 20  1  0  0  0  0
 15 13  1  0  0  0  0
 16 15  1  0  0  0  0
 17 16  1  6  0  0  0
 17 20  1  0  0  0  0
 18 17  1  0  0  0  0
 18 19  1  0  0  0  0
 19  1  1  6  0  0  0
 19 14  1  0  0  0  0
 20 21  1  0  0  0  0
M  END
