
 OpenBabel10141417483D

 26 26  0  0  0  0  0  0  0  0999 V2000
   -8.8689   -2.8530    0.9655 C   0  0  0  0  0  0  0  0  0  0  0  0
   -9.6794   -3.0720    2.1241 C   0  0  0  0  0  0  0  0  0  0  0  0
   -9.4593   -3.3372   -0.2236 C   0  0  0  0  0  0  0  0  0  0  0  0
   -7.3571   -2.3074    1.0854 C   0  0  3  0  0  0  0  0  0  0  0  0
  -10.9430   -3.7357    2.1060 C   0  0  0  0  0  0  0  0  0  0  0  0
  -10.7594   -3.9632   -0.2511 C   0  0  0  0  0  0  0  0  0  0  0  0
   -6.5599   -1.4365   -0.0006 C   0  0  0  0  0  0  0  0  0  0  0  0
   -7.2471   -1.5590    2.3011 O   0  0  0  0  0  0  0  0  0  0  0  0
  -11.4898   -4.1621    0.9092 C   0  0  0  0  0  0  0  0  0  0  0  0
   -5.0383   -0.7366    0.2362 C   0  0  0  0  0  0  0  0  0  0  0  0
  -12.8952   -4.6492    0.9148 N   0  0  0  0  0  0  0  0  0  0  0  0
   -3.6379   -1.5214    0.2943 C   0  0  0  0  0  0  0  0  0  0  0  0
  -14.0871   -3.5090    0.6688 S   0  0  0  0  0  0  0  0  0  0  0  0
   -2.2607   -0.8597    0.3456 N   0  0  0  0  0  0  0  0  0  0  0  0
  -13.4837   -1.9859    1.3581 C   0  0  0  0  0  0  0  0  0  0  0  0
  -14.1067   -3.2609   -0.8296 O   0  0  0  0  0  0  0  0  0  0  0  0
  -15.3067   -3.9702    1.3593 O   0  0  0  0  0  0  0  0  0  0  0  0
   -1.8121   -0.1616    1.5617 C   0  0  0  0  0  0  0  0  0  0  0  0
   -0.3072    0.1311    1.8753 C   0  0  0  0  0  0  0  0  0  0  0  0
   -1.3878   -0.8106   -0.8429 C   0  0  0  0  0  0  0  0  0  0  0  0
   -1.7967    0.2510   -1.8705 C   0  0  0  0  0  0  0  0  0  0  0  0
   -0.8998    0.3700   -3.1255 C   0  0  0  0  0  0  0  0  0  0  0  0
   -0.6250   -0.9021   -3.9314 C   0  0  0  0  0  0  0  0  0  0  0  0
   -1.8564   -1.6450   -4.4664 C   0  0  0  0  0  0  0  0  0  0  0  0
   -1.3693   -2.9455   -5.1183 C   0  0  0  0  0  0  0  0  0  0  0  0
   -2.4489   -3.8566   -5.6744 C   0  0  0  0  0  0  0  0  0  0  0  0
  1  2  1  0  0  0  0
  1  3  2  0  0  0  0
  1  4  1  0  0  0  0
  2  5  2  0  0  0  0
  3  6  1  0  0  0  0
  4  7  1  0  0  0  0
  4  8  1  0  0  0  0
  5  9  1  0  0  0  0
  6  9  2  0  0  0  0
  7 10  1  0  0  0  0
  9 11  1  0  0  0  0
 10 12  1  0  0  0  0
 11 13  1  0  0  0  0
 12 14  1  0  0  0  0
 13 15  1  0  0  0  0
 13 16  2  0  0  0  0
 13 17  2  0  0  0  0
 14 18  1  0  0  0  0
 14 20  1  0  0  0  0
 18 19  1  0  0  0  0
 20 21  1  0  0  0  0
 21 22  1  0  0  0  0
 22 23  1  0  0  0  0
 23 24  1  0  0  0  0
 24 25  1  0  0  0  0
 25 26  1  0  0  0  0
M  END
