
 OpenBabel10141417523D

 92 98  0  0  1  0  0  0  0  0999 V2000
   -3.5425    0.2647   -3.1167 S   0  0  0  0  0  0  0  0  0  0  0  0
  -11.8490    5.6961   -1.3575 O   0  0  0  0  0  0  0  0  0  0  0  0
  -13.7487    0.4852   -0.9055 O   0  0  0  0  0  0  0  0  0  0  0  0
   -8.7024    3.1290    0.0499 O   0  0  0  0  0  0  0  0  0  0  0  0
  -14.6651    0.2442    1.6869 O   0  0  0  0  0  0  0  0  0  0  0  0
  -16.7560   -0.3058    1.1716 O   0  0  0  0  0  0  0  0  0  0  0  0
   -5.5745    4.6220   -3.5757 O   0  0  0  0  0  0  0  0  0  0  0  0
   -3.5973    5.0092    0.1364 O   0  0  0  0  0  0  0  0  0  0  0  0
   -3.1921    5.7753    4.0724 O   0  0  0  0  0  0  0  0  0  0  0  0
   -5.2877    2.0993    0.3885 O   0  0  0  0  0  0  0  0  0  0  0  0
   -8.8065    5.9515   -2.0669 O   0  0  0  0  0  0  0  0  0  0  0  0
   -1.5618    4.3933    2.4931 O   0  0  0  0  0  0  0  0  0  0  0  0
   -0.8038    6.5039   -1.5976 O   0  0  0  0  0  0  0  0  0  0  0  0
   -8.6942    8.7854   -4.5772 O   0  0  0  0  0  0  0  0  0  0  0  0
  -12.8849    3.8735   -2.2655 N   0  0  0  0  0  0  0  0  0  0  0  0
   -9.5925    4.0161   -1.5430 N   0  0  0  0  0  0  0  0  0  0  0  0
  -14.9123    2.3961   -0.4534 N   0  0  0  0  0  0  0  0  0  0  0  0
   -5.4398    4.4142   -0.7145 N   0  0  0  0  0  0  0  0  0  0  0  0
   -4.7947    3.6080    1.9922 N   0  0  0  0  0  0  0  0  0  0  0  0
   -7.3012    5.7546   -0.0141 N   0  0  0  0  0  0  0  0  0  0  0  0
  -17.8865    5.4343   -1.5640 N   0  0  0  0  0  0  0  0  0  0  0  0
   -2.5142    5.3354   -2.2892 N   0  0  0  0  0  0  0  0  0  0  0  0
   -1.9731    3.3886    0.4952 N   0  0  0  0  0  0  0  0  0  0  0  0
   -9.0528    8.5462   -2.3206 N   0  0  0  0  0  0  0  0  0  0  0  0
  -18.6737    6.7521   -3.3207 N   0  0  0  0  0  0  0  0  0  0  0  0
  -17.5758    4.8591   -3.7005 N   0  0  0  0  0  0  0  0  0  0  0  0
   -6.7594   10.2969    2.3449 N   0  0  0  0  0  0  0  0  0  0  0  0
  -11.5368   10.1558   -2.6124 N   0  0  0  0  0  0  0  0  0  0  0  0
  -10.8478    6.4299   -6.1948 N   0  0  0  0  0  0  0  0  0  0  0  0
   -5.1048    9.0481    3.5264 N   0  0  0  0  0  0  0  0  0  0  0  0
   -6.4860   10.3428    4.6305 N   0  0  0  0  0  0  0  0  0  0  0  0
   -9.6059    5.3892   -7.7709 N   0  0  0  0  0  0  0  0  0  0  0  0
   -9.7325    4.3321   -5.8726 N   0  0  0  0  0  0  0  0  0  0  0  0
  -14.7790    3.3847   -3.5835 C   0  0  2  0  0  0  0  0  0  0  0  0
  -14.0077    4.5424   -3.0213 C   0  0  2  0  0  0  0  0  0  0  0  0
  -13.7554    2.2521   -3.6125 C   0  0  0  0  0  0  0  0  0  0  0  0
  -13.1108    2.4416   -2.2655 C   0  0  3  0  0  0  0  0  0  0  0  0
  -15.5860    3.5374   -4.9420 C   0  0  0  0  0  0  0  0  0  0  0  0
  -13.8417    5.3370   -4.2902 C   0  0  0  0  0  0  0  0  0  0  0  0
  -16.0522    5.0492   -5.5270 C   0  0  0  0  0  0  0  0  0  0  0  0
  -14.9384    5.9991   -5.1746 C   0  0  0  0  0  0  0  0  0  0  0  0
  -11.9048    4.4629   -1.4786 C   0  0  0  0  0  0  0  0  0  0  0  0
  -13.9233    1.6872   -1.0989 C   0  0  0  0  0  0  0  0  0  0  0  0
  -10.7876    3.5991   -0.8019 C   0  0  3  0  0  0  0  0  0  0  0  0
  -10.7219    2.0466   -0.5696 C   0  0  0  0  0  0  0  0  0  0  0  0
   -9.2108    3.3962   -2.6946 C   0  0  0  0  0  0  0  0  0  0  0  0
  -10.2670    1.3426   -1.8444 C   0  0  0  0  0  0  0  0  0  0  0  0
  -15.9342    1.9336    0.5363 C   0  0  1  0  0  0  0  0  0  0  0  0
   -9.7451    2.0932   -2.8983 C   0  0  0  0  0  0  0  0  0  0  0  0
   -8.4390    3.9036   -0.9003 C   0  0  0  0  0  0  0  0  0  0  0  0
  -17.4056    2.1217    0.0909 C   0  0  0  0  0  0  0  0  0  0  0  0
  -10.7084    0.0976   -2.1810 C   0  0  0  0  0  0  0  0  0  0  0  0
   -6.6889    4.4499   -1.5608 C   0  0  2  0  0  0  0  0  0  0  0  0
   -9.6041    1.7132   -4.1998 C   0  0  0  0  0  0  0  0  0  0  0  0
  -15.8392    0.4993    1.0812 C   0  0  0  0  0  0  0  0  0  0  0  0
  -17.9077    3.5197   -0.2169 C   0  0  0  0  0  0  0  0  0  0  0  0
  -10.7470   -0.2354   -3.5426 C   0  0  0  0  0  0  0  0  0  0  0  0
  -10.2844    0.6137   -4.5510 C   0  0  0  0  0  0  0  0  0  0  0  0
   -6.4661    3.8393   -2.8556 C   0  0  0  0  0  0  0  0  0  0  0  0
  -17.1815    4.1830   -1.3098 C   0  0  0  0  0  0  0  0  0  0  0  0
   -4.0798    4.5902   -0.7406 C   0  0  0  0  0  0  0  0  0  0  0  0
   -6.9942    4.0796    0.7608 C   0  0  3  0  0  0  0  0  0  0  0  0
   -3.6015    2.9645    2.4621 C   0  0  3  0  0  0  0  0  0  0  0  0
   -3.5791    4.4098   -2.0462 C   0  0  2  0  0  0  0  0  0  0  0  0
   -7.8921    4.4778    1.8496 C   0  0  0  0  0  0  0  0  0  0  0  0
   -3.8578    3.3775    3.9297 C   0  0  0  0  0  0  0  0  0  0  0  0
   -4.7581    4.9442    2.5290 C   0  0  0  0  0  0  0  0  0  0  0  0
   -4.2449    4.8578    3.9052 C   0  0  2  0  0  0  0  0  0  0  0  0
   -7.4966    5.9583    2.0867 C   0  0  0  0  0  0  0  0  0  0  0  0
   -5.6553    3.0528    1.1214 C   0  0  0  0  0  0  0  0  0  0  0  0
   -6.6428    6.4885    0.9417 C   0  0  0  0  0  0  0  0  0  0  0  0
   -3.7278    3.0635   -2.8503 C   0  0  0  0  0  0  0  0  0  0  0  0
   -8.0901    6.4929   -1.2065 C   0  0  0  0  0  0  0  0  0  0  0  0
   -2.2591    3.6161    1.8478 C   0  0  0  0  0  0  0  0  0  0  0  0
   -7.7542    7.8560   -1.8882 C   0  0  3  0  0  0  0  0  0  0  0  0
  -18.1191    5.6446   -2.7960 C   0  0  0  0  0  0  0  0  0  0  0  0
   -1.5295    5.5325   -1.3661 C   0  0  0  0  0  0  0  0  0  0  0  0
   -6.8043    8.7080   -1.1186 C   0  0  0  0  0  0  0  0  0  0  0  0
   -1.1511    4.4176   -0.2800 C   0  0  0  0  0  0  0  0  0  0  0  0
   -2.9718    1.8169   -2.6194 C   0  0  0  0  0  0  0  0  0  0  0  0
   -7.3845    9.2331    0.2218 C   0  0  0  0  0  0  0  0  0  0  0  0
   -1.7258    1.7169   -2.1226 C   0  0  0  0  0  0  0  0  0  0  0  0
   -9.4577    8.9028   -3.6140 C   0  0  0  0  0  0  0  0  0  0  0  0
   -6.2674    9.9026    1.0262 C   0  0  0  0  0  0  0  0  0  0  0  0
  -10.8858    9.6184   -3.8367 C   0  0  1  0  0  0  0  0  0  0  0  0
   -1.1760    0.4391   -2.1410 C   0  0  0  0  0  0  0  0  0  0  0  0
   -2.0519   -0.4697   -2.6779 C   0  0  0  0  0  0  0  0  0  0  0  0
  -11.9017    9.1013   -4.8790 C   0  0  0  0  0  0  0  0  0  0  0  0
  -12.3925    7.6964   -4.7442 C   0  0  0  0  0  0  0  0  0  0  0  0
  -11.3537    6.5255   -4.8370 C   0  0  0  0  0  0  0  0  0  0  0  0
   -6.1449    9.9095    3.3989 C   0  0  0  0  0  0  0  0  0  0  0  0
  -10.1228    5.4336   -6.5308 C   0  0  0  0  0  0  0  0  0  0  0  0
  1 80  1  0  0  0  0
  1 87  1  0  0  0  0
  2 42  2  0  0  0  0
  3 43  2  0  0  0  0
  4 50  2  0  0  0  0
  5 55  1  0  0  0  0
  6 55  2  0  0  0  0
  7 59  1  0  0  0  0
  8 61  2  0  0  0  0
 10 70  2  0  0  0  0
 11 73  2  0  0  0  0
 12 74  2  0  0  0  0
 13 77  2  0  0  0  0
 14 83  2  0  0  0  0
 15 37  1  0  0  0  0
 15 42  1  0  0  0  0
 16 44  1  0  0  0  0
 16 46  1  0  0  0  0
 16 50  1  0  0  0  0
 17 43  1  0  0  0  0
 18 61  1  0  0  0  0
 19 63  1  0  0  0  0
 19 67  1  0  0  0  0
 19 70  1  0  0  0  0
 20 62  1  0  0  0  0
 20 71  1  0  0  0  0
 20 73  1  0  0  0  0
 21 60  1  0  0  0  0
 21 76  2  0  0  0  0
 22 77  1  0  0  0  0
 23 74  1  0  0  0  0
 23 79  1  0  0  0  0
 24 75  1  0  0  0  0
 24 83  1  0  0  0  0
 25 76  1  0  0  0  0
 26 76  1  0  0  0  0
 27 84  1  0  0  0  0
 27 91  2  0  0  0  0
 29 90  1  0  0  0  0
 29 92  2  0  0  0  0
 30 91  1  0  0  0  0
 31 91  1  0  0  0  0
 32 92  1  0  0  0  0
 33 92  1  0  0  0  0
 34 35  1  0  0  0  0
 34 36  1  6  0  0  0
 34 38  1  0  0  0  0
 35 15  1  6  0  0  0
 35 39  1  0  0  0  0
 36 37  1  0  0  0  0
 37 43  1  0  0  0  0
 38 40  1  0  0  0  0
 39 41  1  0  0  0  0
 40 41  1  0  0  0  0
 42 44  1  0  0  0  0
 44 45  1  0  0  0  0
 45 47  1  0  0  0  0
 46 49  1  0  0  0  0
 47 49  1  0  0  0  0
 47 52  2  0  0  0  0
 48 17  1  6  0  0  0
 48 51  1  0  0  0  0
 48 55  1  0  0  0  0
 49 54  2  0  0  0  0
 51 56  1  0  0  0  0
 52 57  1  0  0  0  0
 53 59  1  6  0  0  0
 53 50  1  0  0  0  0
 53 18  1  0  0  0  0
 54 58  1  0  0  0  0
 56 60  1  0  0  0  0
 57 58  2  0  0  0  0
 62 65  1  0  0  0  0
 62 70  1  0  0  0  0
 63 66  1  0  0  0  0
 63 74  1  0  0  0  0
 64 72  1  1  0  0  0
 64 61  1  0  0  0  0
 64 22  1  0  0  0  0
 65 69  1  0  0  0  0
 66 68  1  0  0  0  0
 67 68  1  0  0  0  0
 68  9  1  6  0  0  0
 69 71  1  0  0  0  0
 72 80  1  0  0  0  0
 73 75  1  0  0  0  0
 75 78  1  0  0  0  0
 77 79  1  0  0  0  0
 78 81  1  0  0  0  0
 80 82  2  0  0  0  0
 81 84  1  0  0  0  0
 82 86  1  0  0  0  0
 85 88  1  1  0  0  0
 85 83  1  0  0  0  0
 85 28  1  0  0  0  0
 86 87  2  0  0  0  0
 88 89  1  0  0  0  0
 89 90  1  0  0  0  0
M  END
