
 OpenBabel10141417503D

 22 21  0  0  0  0  0  0  0  0999 V2000
   -2.8062    0.7189    0.2277 C   0  0  0  0  0  0  0  0  0  0  0  0
   -3.1708    1.8056   -0.4677 C   0  0  0  0  0  0  0  0  0  0  0  0
   -1.5995   -0.1544    0.0034 C   0  0  0  0  0  0  0  0  0  0  0  0
   -2.4455    2.4017   -1.6346 C   0  0  0  0  0  0  0  0  0  0  0  0
   -1.5816   -1.2326    1.0434 C   0  0  0  0  0  0  0  0  0  0  0  0
   -1.5084    3.4652   -1.1407 C   0  0  0  0  0  0  0  0  0  0  0  0
   -1.4165   -1.0758    2.3661 C   0  0  0  0  0  0  0  0  0  0  0  0
   -1.4710    4.7739   -1.4458 C   0  0  0  0  0  0  0  0  0  0  0  0
   -0.8801    0.1021    3.1119 C   0  0  0  0  0  0  0  0  0  0  0  0
   -2.2950    5.5361   -2.4451 C   0  0  0  0  0  0  0  0  0  0  0  0
   -0.1970   -0.3051    4.4325 C   0  0  0  0  0  0  0  0  0  0  0  0
   -3.7670    5.3763   -2.2250 C   0  0  0  0  0  0  0  0  0  0  0  0
    1.0347   -1.2269    4.3841 C   0  0  0  0  0  0  0  0  0  0  0  0
   -4.5951    6.0916   -1.4520 C   0  0  0  0  0  0  0  0  0  0  0  0
    0.9041   -2.6680    3.8784 C   0  0  0  0  0  0  0  0  0  0  0  0
   -4.3002    7.3247   -0.6636 C   0  0  0  0  0  0  0  0  0  0  0  0
    1.8639   -3.4581    4.4103 O   0  0  0  0  0  0  0  0  0  0  0  0
    0.1695   -3.1503    3.0663 O   0  0  0  0  0  0  0  0  0  0  0  0
   -3.9463    7.0337    0.7696 C   0  0  0  0  0  0  0  0  0  0  0  0
   -4.2101    7.7664    1.8687 C   0  0  0  0  0  0  0  0  0  0  0  0
   -4.8448    9.1287    1.9676 C   0  0  0  0  0  0  0  0  0  0  0  0
   -4.5455   10.0195    0.7736 C   0  0  0  0  0  0  0  0  0  0  0  0
  1  2  2  0  0  0  0
  1  3  1  0  0  0  0
  2  4  1  0  0  0  0
  3  5  1  0  0  0  0
  4  6  1  0  0  0  0
  5  7  2  0  0  0  0
  6  8  2  0  0  0  0
  7  9  1  0  0  0  0
  8 10  1  0  0  0  0
  9 11  1  0  0  0  0
 10 12  1  0  0  0  0
 11 13  1  0  0  0  0
 12 14  2  0  0  0  0
 13 15  1  0  0  0  0
 14 16  1  0  0  0  0
 15 17  1  0  0  0  0
 15 18  2  0  0  0  0
 16 19  1  0  0  0  0
 19 20  2  0  0  0  0
 20 21  1  0  0  0  0
 21 22  1  0  0  0  0
M  END
