
 OpenBabel10141418303D

 24 23  0  0  0  0  0  0  0  0999 V2000
    5.9303   -0.6848   -1.9647 C   0  0  0  0  0  0  0  0  0  0  0  0
    4.9177    0.2225   -2.4321 O   0  0  0  0  0  0  0  0  0  0  0  0
    7.0690    0.1456   -1.4125 C   0  0  0  0  0  0  0  0  0  0  0  0
    4.8459    0.2323   -3.7985 C   0  0  0  0  0  0  0  0  0  0  0  0
    3.8768    1.1967   -4.3946 C   0  0  0  0  0  0  0  0  0  0  0  0
    5.4671   -0.5111   -4.4890 O   0  0  0  0  0  0  0  0  0  0  0  0
    3.0369    0.3761   -5.3762 C   0  0  0  0  0  0  0  0  0  0  0  0
    2.1753   -0.7409   -4.7525 C   0  0  0  0  0  0  0  0  0  0  0  0
    1.1044   -0.3963   -3.7565 C   0  0  0  0  0  0  0  0  0  0  0  0
   -0.2167   -0.2042   -3.9238 C   0  0  0  0  0  0  0  0  0  0  0  0
   -1.0635   -0.1534   -5.1627 C   0  0  0  0  0  0  0  0  0  0  0  0
   -2.4831   -0.5803   -4.8556 C   0  0  0  0  0  0  0  0  0  0  0  0
   -3.5222    0.2344   -4.5730 C   0  0  0  0  0  0  0  0  0  0  0  0
   -3.5025    1.7415   -4.4398 C   0  0  0  0  0  0  0  0  0  0  0  0
   -4.7676    2.4001   -4.9525 C   0  0  0  0  0  0  0  0  0  0  0  0
   -5.1087    2.9357   -6.1482 C   0  0  0  0  0  0  0  0  0  0  0  0
   -4.4006    3.0495   -7.4969 C   0  0  0  0  0  0  0  0  0  0  0  0
   -3.0090    2.5263   -7.4808 C   0  0  0  0  0  0  0  0  0  0  0  0
   -1.9482    2.5978   -8.2724 C   0  0  0  0  0  0  0  0  0  0  0  0
   -1.7222    2.9645   -9.6855 C   0  0  0  0  0  0  0  0  0  0  0  0
   -0.7841    2.0103  -10.4184 C   0  0  0  0  0  0  0  0  0  0  0  0
   -0.1483    0.8706  -10.0629 C   0  0  0  0  0  0  0  0  0  0  0  0
   -0.1279    0.1192   -8.7558 C   0  0  0  0  0  0  0  0  0  0  0  0
   -0.7111   -1.2779   -8.8108 C   0  0  0  0  0  0  0  0  0  0  0  0
  1  2  1  0  0  0  0
  1  3  1  0  0  0  0
  2  4  1  0  0  0  0
  4  5  1  0  0  0  0
  4  6  2  0  0  0  0
  5  7  1  0  0  0  0
  7  8  1  0  0  0  0
  8  9  1  0  0  0  0
  9 10  2  0  0  0  0
 10 11  1  0  0  0  0
 11 12  1  0  0  0  0
 12 13  2  0  0  0  0
 13 14  1  0  0  0  0
 14 15  1  0  0  0  0
 15 16  2  0  0  0  0
 16 17  1  0  0  0  0
 17 18  1  0  0  0  0
 18 19  2  0  0  0  0
 19 20  1  0  0  0  0
 20 21  1  0  0  0  0
 21 22  2  0  0  0  0
 22 23  1  0  0  0  0
 23 24  1  0  0  0  0
M  END
