
 OpenBabel10141417543D

 31 34  0  0  0  0  0  0  0  0999 V2000
    3.8940   -3.5869   -2.7435 F   0  0  0  0  0  0  0  0  0  0  0  0
    4.2802    0.7752   -0.8092 O   0  0  0  0  0  0  0  0  0  0  0  0
   11.6440    5.5074    2.7816 O   0  0  0  0  0  0  0  0  0  0  0  0
   11.3997    8.1802    3.1538 O   0  0  0  0  0  0  0  0  0  0  0  0
   15.9930    9.6840    4.7980 O   0  0  0  0  0  0  0  0  0  0  0  0
    8.1148    3.4292    1.6251 N   0  0  0  0  0  0  0  0  0  0  0  0
    5.3620    1.5563   -0.4557 N   0  0  0  0  0  0  0  0  0  0  0  0
    7.8394    1.4027   -0.5486 C   0  0  0  0  0  0  0  0  0  0  0  0
    8.3847    1.0600    0.8447 C   0  0  0  0  0  0  0  0  0  0  0  0
    7.9577    2.9096   -0.8350 C   0  0  0  0  0  0  0  0  0  0  0  0
    7.8742    2.0140    1.9265 C   0  0  0  0  0  0  0  0  0  0  0  0
    7.4912    3.7810    0.3381 C   0  0  0  0  0  0  0  0  0  0  0  0
    9.5297    3.8205    1.6868 C   0  0  0  0  0  0  0  0  0  0  0  0
    6.4559    0.8487   -0.7708 C   0  0  0  0  0  0  0  0  0  0  0  0
   10.1350    3.6766    3.0915 C   0  0  0  0  0  0  0  0  0  0  0  0
    6.1034   -0.4170   -1.3171 C   0  0  0  0  0  0  0  0  0  0  0  0
    4.7185   -0.4005   -1.3251 C   0  0  0  0  0  0  0  0  0  0  0  0
   11.5969    4.1082    3.0824 C   0  0  0  0  0  0  0  0  0  0  0  0
    6.7693   -1.5560   -1.8053 C   0  0  0  0  0  0  0  0  0  0  0  0
    3.9173   -1.4346   -1.7938 C   0  0  0  0  0  0  0  0  0  0  0  0
    5.9928   -2.6221   -2.2828 C   0  0  0  0  0  0  0  0  0  0  0  0
    4.5996   -2.5491   -2.2740 C   0  0  0  0  0  0  0  0  0  0  0  0
   12.7400    6.1987    3.2238 C   0  0  0  0  0  0  0  0  0  0  0  0
   12.6147    7.5911    3.4192 C   0  0  0  0  0  0  0  0  0  0  0  0
   13.9753    5.5794    3.4289 C   0  0  0  0  0  0  0  0  0  0  0  0
   13.7113    8.3175    3.9035 C   0  0  0  0  0  0  0  0  0  0  0  0
   15.0641    6.3186    3.8780 C   0  0  0  0  0  0  0  0  0  0  0  0
   14.9386    7.6839    4.1234 C   0  0  0  0  0  0  0  0  0  0  0  0
   16.1063    8.4913    4.5852 C   0  0  0  0  0  0  0  0  0  0  0  0
   11.4505    9.5628    2.7904 C   0  0  0  0  0  0  0  0  0  0  0  0
   17.4221    7.7657    4.7546 C   0  0  0  0  0  0  0  0  0  0  0  0
  1 22  1  0  0  0  0
  2  7  1  0  0  0  0
  2 17  1  0  0  0  0
  3 18  1  0  0  0  0
  3 23  1  0  0  0  0
  4 24  1  0  0  0  0
  4 30  1  0  0  0  0
  5 29  2  0  0  0  0
  6 11  1  0  0  0  0
  6 12  1  0  0  0  0
  6 13  1  0  0  0  0
  7 14  2  0  0  0  0
  8  9  1  0  0  0  0
  8 10  1  0  0  0  0
  8 14  1  0  0  0  0
  9 11  1  0  0  0  0
 10 12  1  0  0  0  0
 13 15  1  0  0  0  0
 14 16  1  0  0  0  0
 15 18  1  0  0  0  0
 16 17  2  0  0  0  0
 16 19  1  0  0  0  0
 17 20  1  0  0  0  0
 19 21  2  0  0  0  0
 20 22  2  0  0  0  0
 21 22  1  0  0  0  0
 23 24  2  0  0  0  0
 23 25  1  0  0  0  0
 24 26  1  0  0  0  0
 25 27  2  0  0  0  0
 26 28  2  0  0  0  0
 27 28  1  0  0  0  0
 28 29  1  0  0  0  0
 29 31  1  0  0  0  0
M  END
