1088
 OpenBabel10141417523D

 35 37  0  0  1  0  0  0  0  0999 V2000
    1.9161   -0.5878   -1.4264 O   0  0  0  0  0  0  0  0  0  0  0  0
    9.0806   -1.5991   -1.4748 O   0  0  0  0  0  0  0  0  0  0  0  0
    3.7332    1.5367   -7.7453 O   0  0  0  0  0  0  0  0  0  0  0  0
    5.0603    2.1559   -5.9895 O   0  0  0  0  0  0  0  0  0  0  0  0
    2.8928    4.1922   -7.0385 O   0  0  0  0  0  0  0  0  0  0  0  0
    3.8351   -1.6171   -3.5341 C   0  0  3  0  0  0  0  0  0  0  0  0
    2.9637   -2.8153   -3.1560 C   0  0  3  0  0  0  0  0  0  0  0  0
    4.1594   -0.7489   -2.2727 C   0  0  3  0  0  0  0  0  0  0  0  0
    2.9211   -2.7566   -1.6363 C   0  0  0  0  0  0  0  0  0  0  0  0
    3.1418   -1.2952   -1.2551 C   0  0  3  0  0  0  0  0  0  0  0  0
    2.8944   -0.9167   -4.4636 C   0  0  0  0  0  0  0  0  0  0  0  0
    1.5965   -2.7439   -3.9191 C   0  0  0  0  0  0  0  0  0  0  0  0
    1.4909   -1.3613   -4.4400 C   0  0  0  0  0  0  0  0  0  0  0  0
    5.5328   -0.6524   -1.6268 C   0  0  0  0  0  0  0  0  0  0  0  0
    0.4024   -0.6375   -4.7811 C   0  0  0  0  0  0  0  0  0  0  0  0
    6.7655   -1.1364   -1.8579 C   0  0  0  0  0  0  0  0  0  0  0  0
    0.3138    0.7959   -5.3155 C   0  0  0  0  0  0  0  0  0  0  0  0
    7.9638   -0.8770   -0.9306 C   0  0  3  0  0  0  0  0  0  0  0  0
    1.3833    1.3563   -6.2800 C   0  0  0  0  0  0  0  0  0  0  0  0
    8.4237    0.6050   -0.6805 C   0  0  3  0  0  0  0  0  0  0  0  0
    2.7644    1.5171   -5.6942 C   0  0  0  0  0  0  0  0  0  0  0  0
    7.3351    1.5431   -0.0768 C   0  0  0  0  0  0  0  0  0  0  0  0
    9.6531    0.6500    0.2652 C   0  0  0  0  0  0  0  0  0  0  0  0
    3.9646    1.8886   -6.4589 C   0  0  0  0  0  0  0  0  0  0  0  0
    6.9196    1.0251    1.2469 C   0  0  0  0  0  0  0  0  0  0  0  0
    6.9712    0.4701    2.2717 C   0  0  0  0  0  0  0  0  0  0  0  0
    3.9788    2.6261   -8.5844 C   0  0  0  0  0  0  0  0  0  0  0  0
    7.4769   -0.3084    3.4094 C   0  0  0  0  0  0  0  0  0  0  0  0
    3.2391    3.9212   -8.1868 C   0  0  0  0  0  0  0  0  0  0  0  0
    2.9155    4.8750   -9.2693 C   0  0  0  0  0  0  0  0  0  0  0  0
    1.7966    5.7157   -9.1794 C   0  0  0  0  0  0  0  0  0  0  0  0
    3.7667    4.9686  -10.3678 C   0  0  0  0  0  0  0  0  0  0  0  0
    1.5019    6.5984  -10.2224 C   0  0  0  0  0  0  0  0  0  0  0  0
    3.5455    5.9527  -11.3274 C   0  0  0  0  0  0  0  0  0  0  0  0
    2.4060    6.7533  -11.2690 C   0  0  0  0  0  0  0  0  0  0  0  0
  1 10  1  0  0  0  0
  2 18  1  0  0  0  0
  3 24  1  0  0  0  0
  3 27  1  0  0  0  0
  4 24  2  0  0  0  0
  5 29  2  0  0  0  0
  6  7  1  0  0  0  0
  6  8  1  0  0  0  0
  6 11  1  0  0  0  0
  7  9  1  0  0  0  0
  7 12  1  0  0  0  0
  8 10  1  0  0  0  0
  8 14  1  0  0  0  0
  9 10  1  0  0  0  0
 11 13  1  0  0  0  0
 12 13  1  0  0  0  0
 13 15  2  0  0  0  0
 14 16  2  0  0  0  0
 15 17  1  0  0  0  0
 16 18  1  0  0  0  0
 17 19  1  0  0  0  0
 18 20  1  0  0  0  0
 19 21  1  0  0  0  0
 20 22  1  0  0  0  0
 20 23  1  0  0  0  0
 21 24  1  0  0  0  0
 22 25  1  0  0  0  0
 25 26  3  0  0  0  0
 26 28  1  0  0  0  0
 27 29  1  0  0  0  0
 29 30  1  0  0  0  0
 30 31  2  0  0  0  0
 30 32  1  0  0  0  0
 31 33  1  0  0  0  0
 32 34  2  0  0  0  0
 33 35  2  0  0  0  0
 34 35  1  0  0  0  0
M  END
