619
 OpenBabel10141417493D

 37 41  0  0  0  0  0  0  0  0999 V2000
    1.6229   -2.5577   -1.9484 O   0  0  0  0  0  0  0  0  0  0  0  0
   -1.4285    3.2229    0.9687 N   0  0  0  0  0  0  0  0  0  0  0  0
    0.1698    4.9774    2.4654 N   0  0  0  0  0  0  0  0  0  0  0  0
    2.9667   -2.1341   -0.0843 N   0  0  0  0  0  0  0  0  0  0  0  0
    4.2430   -5.9832    2.5383 N   0  0  0  0  0  0  0  0  0  0  0  0
    4.8213   -8.2860    2.2782 N   0  0  0  0  0  0  0  0  0  0  0  0
    3.4882   -7.5894    4.0632 N   0  0  0  0  0  0  0  0  0  0  0  0
    6.2590  -12.8143    1.3185 N   0  0  0  0  0  0  0  0  0  0  0  0
   -2.0236    4.5457    1.2576 C   0  0  0  0  0  0  0  0  0  0  0  0
   -0.8874    2.6918    2.2411 C   0  0  0  0  0  0  0  0  0  0  0  0
   -1.0829    5.5661    1.9618 C   0  0  0  0  0  0  0  0  0  0  0  0
   -0.0828    3.6880    3.1204 C   0  0  0  0  0  0  0  0  0  0  0  0
   -0.3972    3.3466   -0.0840 C   0  0  0  0  0  0  0  0  0  0  0  0
    0.9115    5.8981    3.3121 C   0  0  0  0  0  0  0  0  0  0  0  0
    0.2583    2.0268   -0.4381 C   0  0  0  0  0  0  0  0  0  0  0  0
    1.6393    1.8572   -0.2531 C   0  0  0  0  0  0  0  0  0  0  0  0
   -0.5112    0.9518   -0.9083 C   0  0  0  0  0  0  0  0  0  0  0  0
    2.2336    0.6186   -0.4808 C   0  0  0  0  0  0  0  0  0  0  0  0
    0.0797   -0.2891   -1.1373 C   0  0  0  0  0  0  0  0  0  0  0  0
    1.4449   -0.4641   -0.8952 C   0  0  0  0  0  0  0  0  0  0  0  0
    2.0446   -1.8002   -1.0461 C   0  0  0  0  0  0  0  0  0  0  0  0
    3.6037   -3.3793   -0.0385 C   0  0  0  0  0  0  0  0  0  0  0  0
    4.3011   -5.3316    1.2839 C   0  0  0  0  0  0  0  0  0  0  0  0
    3.6874   -4.0675    1.1825 C   0  0  0  0  0  0  0  0  0  0  0  0
    4.8328   -5.8474    0.0852 C   0  0  0  0  0  0  0  0  0  0  0  0
    4.1633   -3.9098   -1.1931 C   0  0  0  0  0  0  0  0  0  0  0  0
    4.7820   -5.1370   -1.1240 C   0  0  0  0  0  0  0  0  0  0  0  0
    5.5270   -7.1457   -0.0291 C   0  0  0  0  0  0  0  0  0  0  0  0
    4.1885   -7.3218    2.9524 C   0  0  0  0  0  0  0  0  0  0  0  0
    4.7135   -9.5840    2.6300 C   0  0  0  0  0  0  0  0  0  0  0  0
    5.5014  -10.5410    1.8089 C   0  0  0  0  0  0  0  0  0  0  0  0
    3.9286   -9.9329    3.7022 C   0  0  0  0  0  0  0  0  0  0  0  0
    3.3467   -8.8920    4.3910 C   0  0  0  0  0  0  0  0  0  0  0  0
    6.3522  -10.1325    0.7699 C   0  0  0  0  0  0  0  0  0  0  0  0
    5.5109  -11.9137    2.0149 C   0  0  0  0  0  0  0  0  0  0  0  0
    7.1094  -11.0074    0.0026 C   0  0  0  0  0  0  0  0  0  0  0  0
    7.0414  -12.3364    0.3289 C   0  0  0  0  0  0  0  0  0  0  0  0
  1 21  2  0  0  0  0
  2  9  1  0  0  0  0
  2 10  1  0  0  0  0
  2 13  1  0  0  0  0
  3 11  1  0  0  0  0
  3 12  1  0  0  0  0
  3 14  1  0  0  0  0
  4 21  1  0  0  0  0
  4 22  1  0  0  0  0
  5 23  1  0  0  0  0
  5 29  1  0  0  0  0
  6 29  1  0  0  0  0
  6 30  2  0  0  0  0
  7 29  2  0  0  0  0
  7 33  1  0  0  0  0
  8 35  1  0  0  0  0
  8 37  2  0  0  0  0
  9 11  1  0  0  0  0
 10 12  1  0  0  0  0
 13 15  1  0  0  0  0
 15 16  2  0  0  0  0
 15 17  1  0  0  0  0
 16 18  1  0  0  0  0
 17 19  2  0  0  0  0
 18 20  2  0  0  0  0
 19 20  1  0  0  0  0
 20 21  1  0  0  0  0
 22 24  2  0  0  0  0
 22 26  1  0  0  0  0
 23 24  1  0  0  0  0
 23 25  2  0  0  0  0
 25 27  1  0  0  0  0
 25 28  1  0  0  0  0
 26 27  2  0  0  0  0
 30 31  1  0  0  0  0
 30 32  1  0  0  0  0
 31 34  1  0  0  0  0
 31 35  2  0  0  0  0
 32 33  2  0  0  0  0
 34 36  2  0  0  0  0
 36 37  1  0  0  0  0
M  END
