1598
 OpenBabel10141417483D

 20 21  0  0  1  0  0  0  0  0999 V2000
    1.7433    8.9442   -6.3017 S   0  0  0  0  0  0  0  0  0  0  0  0
    1.3821   15.5513   -8.1989 O   0  0  0  0  0  0  0  0  0  0  0  0
   -1.6350   13.1467   -5.6326 O   0  0  0  0  0  0  0  0  0  0  0  0
   -2.5871   10.3453   -7.0072 O   0  0  0  0  0  0  0  0  0  0  0  0
   -1.4105    8.8843   -5.8068 O   0  0  0  0  0  0  0  0  0  0  0  0
   -0.4834   12.0223   -7.3744 N   0  0  0  0  0  0  0  0  0  0  0  0
    1.5354   11.2555   -3.7765 N   0  0  0  0  0  0  0  0  0  0  0  0
    0.1438   12.8932   -2.9493 N   0  0  0  0  0  0  0  0  0  0  0  0
    0.8362   12.6001   -7.7509 C   0  0  1  0  0  0  0  0  0  0  0  0
    0.5102   13.8040   -6.8175 C   0  0  2  0  0  0  0  0  0  0  0  0
    1.8723   11.5512   -7.3436 C   0  0  0  0  0  0  0  0  0  0  0  0
   -0.7610   13.0160   -6.4756 C   0  0  0  0  0  0  0  0  0  0  0  0
    0.2431   15.1656   -7.4327 C   0  0  1  0  0  0  0  0  0  0  0  0
   -0.2740   10.7318   -6.9053 C   0  0  0  0  0  0  0  0  0  0  0  0
    1.0302   10.4165   -6.8367 C   0  0  0  0  0  0  0  0  0  0  0  0
    0.0101   16.2147   -6.3503 C   0  0  0  0  0  0  0  0  0  0  0  0
   -1.4250    9.8868   -6.4982 C   0  0  0  0  0  0  0  0  0  0  0  0
    2.7900    9.4691   -4.8872 C   0  0  0  0  0  0  0  0  0  0  0  0
    2.0093    9.8727   -3.6250 C   0  0  0  0  0  0  0  0  0  0  0  0
    0.7087   11.6597   -2.8844 C   0  0  0  0  0  0  0  0  0  0  0  0
  1 18  1  0  0  0  0
  1 15  1  0  0  0  0
  3 12  2  0  0  0  0
  4 17  1  0  0  0  0
  5 17  2  0  0  0  0
  6 12  1  0  0  0  0
  6 14  1  0  0  0  0
  7 19  1  0  0  0  0
  7 20  2  0  0  0  0
  8 20  1  0  0  0  0
  9  6  1  1  0  0  0
  9 10  1  0  0  0  0
  9 11  1  0  0  0  0
 10 12  1  6  0  0  0
 10 13  1  0  0  0  0
 11 15  1  0  0  0  0
 13  2  1  1  0  0  0
 13 16  1  0  0  0  0
 14 15  2  0  0  0  0
 14 17  1  0  0  0  0
 18 19  1  0  0  0  0
M  END
