458
 OpenBabel10141417513D

 21 23  0  0  0  0  0  0  0  0999 V2000
    0.1710   -0.8487   -0.2539 N   0  0  0  0  0  0  0  0  0  0  0  0
    1.7206   -2.8384   -3.8832 N   0  0  0  0  0  0  0  0  0  0  0  0
    0.2566   -1.7049   -1.4703 C   0  0  0  0  0  0  0  0  0  0  0  0
   -1.1461   -0.3976   -0.0056 C   0  0  0  0  0  0  0  0  0  0  0  0
    1.3936   -0.2941    0.2016 C   0  0  0  0  0  0  0  0  0  0  0  0
   -0.5465    1.9735   -0.6007 C   0  0  0  0  0  0  0  0  0  0  0  0
    0.5487    2.1515    0.4396 C   0  0  0  0  0  0  0  0  0  0  0  0
   -1.5396    0.9342   -0.1668 C   0  0  0  0  0  0  0  0  0  0  0  0
    1.5950    1.0621    0.5277 C   0  0  0  0  0  0  0  0  0  0  0  0
    0.6213   -0.8844   -2.7159 C   0  0  0  0  0  0  0  0  0  0  0  0
    0.7397   -1.7445   -3.9807 C   0  0  0  0  0  0  0  0  0  0  0  0
   -2.1104   -1.3366    0.4122 C   0  0  0  0  0  0  0  0  0  0  0  0
    2.4855   -1.1747    0.4034 C   0  0  0  0  0  0  0  0  0  0  0  0
   -2.8775    1.3044    0.0686 C   0  0  0  0  0  0  0  0  0  0  0  0
    2.8617    1.4825    1.0050 C   0  0  0  0  0  0  0  0  0  0  0  0
   -3.4340   -0.9625    0.6539 C   0  0  0  0  0  0  0  0  0  0  0  0
    3.7308   -0.7424    0.8648 C   0  0  0  0  0  0  0  0  0  0  0  0
   -3.8173    0.3581    0.4770 C   0  0  0  0  0  0  0  0  0  0  0  0
    3.9220    0.5941    1.1592 C   0  0  0  0  0  0  0  0  0  0  0  0
    1.7099   -3.6433   -5.1080 C   0  0  0  0  0  0  0  0  0  0  0  0
    3.0757   -2.3391   -3.6360 C   0  0  0  0  0  0  0  0  0  0  0  0
  1  3  1  0  0  0  0
  1  4  1  0  0  0  0
  1  5  1  0  0  0  0
  2 11  1  0  0  0  0
  2 20  1  0  0  0  0
  2 21  1  0  0  0  0
  3 10  1  0  0  0  0
  4  8  1  0  0  0  0
  4 12  2  0  0  0  0
  5  9  1  0  0  0  0
  5 13  2  0  0  0  0
  6  7  1  0  0  0  0
  6  8  1  0  0  0  0
  7  9  1  0  0  0  0
  8 14  2  0  0  0  0
  9 15  2  0  0  0  0
 10 11  1  0  0  0  0
 12 16  1  0  0  0  0
 13 17  1  0  0  0  0
 14 18  1  0  0  0  0
 15 19  1  0  0  0  0
 16 18  2  0  0  0  0
 17 19  2  0  0  0  0
M  END
