
 OpenBabel10141417493D

 16 16  0  0  0  0  0  0  0  0999 V2000
    1.2208    1.6255   -2.6742 P   0  0  0  0  0  0  0  0  0  0  0  0
    1.9038    1.9296    0.2554 P   0  0  0  0  0  0  0  0  0  0  0  0
    1.8342    1.9100   -4.1347 O   0  0  0  0  0  0  0  0  0  0  0  0
    1.2795    0.0166   -2.6567 O   0  0  0  0  0  0  0  0  0  0  0  0
    2.4245    0.4734    0.7052 O   0  0  0  0  0  0  0  0  0  0  0  0
    2.8273    2.8535    1.1981 O   0  0  0  0  0  0  0  0  0  0  0  0
    0.4741    2.1186    0.6202 O   0  0  0  0  0  0  0  0  0  0  0  0
   -0.1830    2.1202   -2.6049 O   0  0  0  0  0  0  0  0  0  0  0  0
    3.7143    1.4824   -1.7553 N   0  0  0  0  0  0  0  0  0  0  0  0
    4.9059    1.8495   -0.9766 C   0  0  0  0  0  0  0  0  0  0  0  0
    5.3336    3.3204   -1.1014 C   0  0  0  0  0  0  0  0  0  0  0  0
    6.1001    0.9783   -1.4255 C   0  0  0  0  0  0  0  0  0  0  0  0
    6.5871    1.2965   -2.8409 C   0  0  0  0  0  0  0  0  0  0  0  0
    5.7739    3.6946   -2.5158 C   0  0  0  0  0  0  0  0  0  0  0  0
    6.8753    2.7814   -3.0498 C   0  0  0  0  0  0  0  0  0  0  0  0
    2.4419    2.2155   -1.4450 C   0  0  0  0  0  0  0  0  0  0  0  0
  1  3  1  0  0  0  0
  1  4  1  0  0  0  0
  1  8  2  0  0  0  0
  1 16  1  0  0  0  0
  2  5  1  0  0  0  0
  2  6  1  0  0  0  0
  2  7  2  0  0  0  0
  2 16  1  0  0  0  0
  9 10  1  0  0  0  0
  9 16  1  0  0  0  0
 10 11  1  0  0  0  0
 10 12  1  0  0  0  0
 11 14  1  0  0  0  0
 12 13  1  0  0  0  0
 13 15  1  0  0  0  0
 14 15  1  0  0  0  0
M  END
