[NO NAME]
 OpenBabel10141417493D
Created with ChemWriter - http://chemwriter.com
 29 32  0  0  1  0  0  0  0  0999 V2000
    1.1027    3.0684    1.4088 O   0  0  0  0  0  0  0  0  0  0  0  0
    0.1063    0.2787   -4.2192 O   0  0  0  0  0  0  0  0  0  0  0  0
   -3.1673   -1.3897   -0.9466 O   0  0  0  0  0  0  0  0  0  0  0  0
    2.8861    1.5495    3.1182 N   0  0  0  0  0  0  0  0  0  0  0  0
   -1.3955   -0.3533   -1.9189 N   0  0  0  0  0  0  0  0  0  0  0  0
    3.1674    0.4473    4.0583 C   0  0  0  0  0  0  0  0  0  0  0  0
    3.8100    0.9124    5.3907 C   0  0  0  0  0  0  0  0  0  0  0  0
    1.9380   -0.3916    4.4983 C   0  0  0  0  0  0  0  0  0  0  0  0
    3.5377   -0.2860    6.2521 C   0  0  0  0  0  0  0  0  0  0  0  0
    2.4804   -1.0334    5.7370 C   0  0  0  0  0  0  0  0  0  0  0  0
    4.1967   -0.6881    7.3989 C   0  0  0  0  0  0  0  0  0  0  0  0
    2.0733   -2.2059    6.3451 C   0  0  0  0  0  0  0  0  0  0  0  0
    2.3409    1.0080    1.8519 C   0  0  0  0  0  0  0  0  0  0  0  0
    3.8184   -1.8889    8.0375 C   0  0  0  0  0  0  0  0  0  0  0  0
    2.7504   -2.6600    7.4964 C   0  0  0  0  0  0  0  0  0  0  0  0
    2.0085    2.1262    0.8309 C   0  0  1  0  0  0  0  0  0  0  0  0
    4.6239   -2.3211    9.2476 C   0  0  0  0  0  0  0  0  0  0  0  0
    2.3243   -4.0013    8.0564 C   0  0  0  0  0  0  0  0  0  0  0  0
    1.4328    1.5935   -0.4728 C   0  0  0  0  0  0  0  0  0  0  0  0
    0.1969    0.9116   -0.5738 C   0  0  0  0  0  0  0  0  0  0  0  0
    4.5866   -1.3144   10.3930 C   0  0  0  0  0  0  0  0  0  0  0  0
    3.1272   -5.1458    7.4512 C   0  0  0  0  0  0  0  0  0  0  0  0
    2.1953    1.7767   -1.6500 C   0  0  0  0  0  0  0  0  0  0  0  0
   -0.2272    0.4190   -1.8285 C   0  0  0  0  0  0  0  0  0  0  0  0
    1.7455    1.3186   -2.8911 C   0  0  0  0  0  0  0  0  0  0  0  0
   -0.6992    0.6725    0.5695 C   0  0  0  0  0  0  0  0  0  0  0  0
    0.5317    0.6571   -2.9760 C   0  0  0  0  0  0  0  0  0  0  0  0
   -1.8010   -0.0760    0.4496 C   0  0  0  0  0  0  0  0  0  0  0  0
   -2.1821   -0.6653   -0.8447 C   0  0  0  0  0  0  0  0  0  0  0  0
  2 27  1  0  0  0  0
  3 29  2  0  0  0  0
  4  6  1  0  0  0  0
  4 13  1  0  0  0  0
  5 24  1  0  0  0  0
  5 29  1  0  0  0  0
  6  7  1  0  0  0  0
  6  8  1  0  0  0  0
  7  9  1  0  0  0  0
  8 10  1  0  0  0  0
  9 10  1  0  0  0  0
  9 11  2  0  0  0  0
 10 12  2  0  0  0  0
 11 14  1  0  0  0  0
 12 15  1  0  0  0  0
 13 16  1  0  0  0  0
 14 15  2  0  0  0  0
 14 17  1  0  0  0  0
 15 18  1  0  0  0  0
 16  1  1  1  0  0  0
 16 19  1  0  0  0  0
 17 21  1  0  0  0  0
 18 22  1  0  0  0  0
 19 20  2  0  0  0  0
 19 23  1  0  0  0  0
 20 24  1  0  0  0  0
 20 26  1  0  0  0  0
 23 25  2  0  0  0  0
 24 27  2  0  0  0  0
 25 27  1  0  0  0  0
 26 28  2  0  0  0  0
 28 29  1  0  0  0  0
M  END
