224
 OpenBabel10141417533D

 45 49  0  0  1  0  0  0  0  0999 V2000
    5.2245    1.6107   -3.4885 O   0  0  0  0  0  0  0  0  0  0  0  0
    3.9009    7.0541   -0.5942 O   0  0  0  0  0  0  0  0  0  0  0  0
    1.3519   -2.9010   -2.6754 O   0  0  0  0  0  0  0  0  0  0  0  0
    6.0026    3.7550   -2.6269 O   0  0  0  0  0  0  0  0  0  0  0  0
    3.9456   -1.0619   -3.9683 N   0  0  0  0  0  0  0  0  0  0  0  0
    3.3523   -1.7444   -6.8955 N   0  0  0  0  0  0  0  0  0  0  0  0
    5.8528    5.1243   -0.8986 N   0  0  0  0  0  0  0  0  0  0  0  0
    3.3793   -3.8784   -3.1917 N   0  0  0  0  0  0  0  0  0  0  0  0
    4.6232    1.8219   -9.4722 N   0  0  0  0  0  0  0  0  0  0  0  0
    2.6959   -1.7883   -4.3609 C   0  0  1  0  0  0  0  0  0  0  0  0
    2.6692   -2.4465   -5.7810 C   0  0  0  0  0  0  0  0  0  0  0  0
    4.5153   -0.3666   -5.1398 C   0  0  0  0  0  0  0  0  0  0  0  0
    3.6148   -0.0762   -2.8895 C   0  0  0  0  0  0  0  0  0  0  0  0
    4.6436   -1.2644   -6.3782 C   0  0  0  0  0  0  0  0  0  0  0  0
    4.7690    0.8435   -2.3842 C   0  0  2  0  0  0  0  0  0  0  0  0
    4.2204    1.7725   -1.2908 C   0  0  0  0  0  0  0  0  0  0  0  0
    5.1785    2.7383   -0.5755 C   0  0  2  0  0  0  0  0  0  0  0  0
    5.5969    5.5396    0.4506 C   0  0  2  0  0  0  0  0  0  0  0  0
    2.4069   -2.8974   -3.3156 C   0  0  0  0  0  0  0  0  0  0  0  0
    4.5606    6.6920    0.6185 C   0  0  1  0  0  0  0  0  0  0  0  0
    2.5349   -0.6666   -7.4842 C   0  0  0  0  0  0  0  0  0  0  0  0
    5.3023    7.9043    1.2139 C   0  0  0  0  0  0  0  0  0  0  0  0
    6.8312    6.0639    1.1121 C   0  0  0  0  0  0  0  0  0  0  0  0
    5.6701    3.9002   -1.4643 C   0  0  0  0  0  0  0  0  0  0  0  0
    6.4100    2.0856    0.0943 C   0  0  0  0  0  0  0  0  0  0  0  0
    6.6508    7.3661    1.5647 C   0  0  0  0  0  0  0  0  0  0  0  0
    3.2620   -5.0848   -2.3514 C   0  0  0  0  0  0  0  0  0  0  0  0
    3.1856    0.0248   -8.6686 C   0  0  0  0  0  0  0  0  0  0  0  0
    8.0174    5.3807    1.3513 C   0  0  0  0  0  0  0  0  0  0  0  0
    6.1113    0.9206    1.0054 C   0  0  0  0  0  0  0  0  0  0  0  0
    7.6575    8.0135    2.2600 C   0  0  0  0  0  0  0  0  0  0  0  0
    3.0932   -4.7215   -0.8673 C   0  0  0  0  0  0  0  0  0  0  0  0
    2.0668   -5.9367   -2.8085 C   0  0  0  0  0  0  0  0  0  0  0  0
    4.5373   -5.9427   -2.4905 C   0  0  0  0  0  0  0  0  0  0  0  0
    9.0237    6.0125    2.0730 C   0  0  0  0  0  0  0  0  0  0  0  0
    8.8461    7.3257    2.5194 C   0  0  0  0  0  0  0  0  0  0  0  0
    3.0481   -0.4364   -9.9816 C   0  0  0  0  0  0  0  0  0  0  0  0
    3.9827    1.1555   -8.4840 C   0  0  0  0  0  0  0  0  0  0  0  0
    6.6707   -0.3318    0.7245 C   0  0  0  0  0  0  0  0  0  0  0  0
    5.2762    1.0533    2.1241 C   0  0  0  0  0  0  0  0  0  0  0  0
    3.6835    0.2398  -11.0251 C   0  0  0  0  0  0  0  0  0  0  0  0
    6.3113   -1.4524    1.4709 C   0  0  0  0  0  0  0  0  0  0  0  0
    4.9276   -0.0688    2.8796 C   0  0  0  0  0  0  0  0  0  0  0  0
    5.4226   -1.3252    2.5348 C   0  0  0  0  0  0  0  0  0  0  0  0
    4.4555    1.3494  -10.7222 C   0  0  0  0  0  0  0  0  0  0  0  0
  3 19  2  0  0  0  0
  4 24  2  0  0  0  0
  5 10  1  0  0  0  0
  5 12  1  0  0  0  0
  5 13  1  0  0  0  0
  6 11  1  0  0  0  0
  6 14  1  0  0  0  0
  6 21  1  0  0  0  0
  7 24  1  0  0  0  0
  8 19  1  0  0  0  0
  8 27  1  0  0  0  0
  9 38  1  0  0  0  0
  9 45  2  0  0  0  0
 10 11  1  0  0  0  0
 10 19  1  1  0  0  0
 12 14  1  0  0  0  0
 15 16  1  1  0  0  0
 15 13  1  0  0  0  0
 15  1  1  0  0  0  0
 17 25  1  6  0  0  0
 17 24  1  0  0  0  0
 17 16  1  0  0  0  0
 18  7  1  6  0  0  0
 18 20  1  0  0  0  0
 18 23  1  0  0  0  0
 20  2  1  6  0  0  0
 20 22  1  0  0  0  0
 21 28  1  0  0  0  0
 22 26  1  0  0  0  0
 23 26  1  0  0  0  0
 23 29  2  0  0  0  0
 25 30  1  0  0  0  0
 26 31  2  0  0  0  0
 27 32  1  0  0  0  0
 27 33  1  0  0  0  0
 27 34  1  0  0  0  0
 28 37  1  0  0  0  0
 28 38  2  0  0  0  0
 29 35  1  0  0  0  0
 30 39  2  0  0  0  0
 30 40  1  0  0  0  0
 31 36  1  0  0  0  0
 35 36  2  0  0  0  0
 37 41  2  0  0  0  0
 39 42  1  0  0  0  0
 40 43  2  0  0  0  0
 41 45  1  0  0  0  0
 42 44  2  0  0  0  0
 43 44  1  0  0  0  0
M  END
