
 OpenBabel10141417493D

 31 34  0  0  1  0  0  0  0  0999 V2000
    9.7562   -3.7748    3.8856 O   0  0  0  0  0  0  0  0  0  0  0  0
    9.9456   -2.0080    1.1985 O   0  0  0  0  0  0  0  0  0  0  0  0
   11.2740   -1.4373    6.3955 O   0  0  0  0  0  0  0  0  0  0  0  0
   12.1358   -4.7109    5.1734 O   0  0  0  0  0  0  0  0  0  0  0  0
   15.7419   -3.4895    3.6963 O   0  0  0  0  0  0  0  0  0  0  0  0
   12.5738   -3.0817    7.2822 O   0  0  0  0  0  0  0  0  0  0  0  0
   12.8741   -0.9115    0.7597 C   0  0  1  0  0  0  0  0  0  0  0  0
   13.0493    0.2761    1.6700 C   0  0  2  0  0  0  0  0  0  0  0  0
   14.2361   -0.1655    0.8379 C   0  0  0  0  0  0  0  0  0  0  0  0
   12.3782   -2.2040    1.3922 C   0  0  1  0  0  0  0  0  0  0  0  0
   12.9721    0.0881    3.1609 C   0  0  0  0  0  0  0  0  0  0  0  0
   10.7656   -1.4807    3.4031 C   0  0  2  0  0  0  0  0  0  0  0  0
   11.5377   -0.0978    3.6771 C   0  0  2  0  0  0  0  0  0  0  0  0
   10.8735   -2.8010    4.2777 C   0  0  1  0  0  0  0  0  0  0  0  0
   10.9275   -1.9349    1.9461 C   0  0  0  0  0  0  0  0  0  0  0  0
   14.5840    0.6952   -0.3630 C   0  0  0  0  0  0  0  0  0  0  0  0
   15.4865   -0.6376    1.5376 C   0  0  0  0  0  0  0  0  0  0  0  0
   13.4078   -2.8928    2.2561 C   0  0  0  0  0  0  0  0  0  0  0  0
    9.3568   -1.1387    3.9291 C   0  0  0  0  0  0  0  0  0  0  0  0
   12.0115   -3.8176    4.0678 C   0  0  1  0  0  0  0  0  0  0  0  0
   10.4249   -2.3440    5.6926 C   0  0  2  0  0  0  0  0  0  0  0  0
   10.7260    1.1563    3.2237 C   0  0  0  0  0  0  0  0  0  0  0  0
   13.3330   -3.4840    3.4665 C   0  0  0  0  0  0  0  0  0  0  0  0
    9.2170   -1.5201    5.2182 C   0  0  0  0  0  0  0  0  0  0  0  0
   14.5407   -4.1348    4.1075 C   0  0  0  0  0  0  0  0  0  0  0  0
    8.0247   -1.3166    6.0815 C   0  0  0  0  0  0  0  0  0  0  0  0
   12.2610   -1.9104    7.1735 C   0  0  0  0  0  0  0  0  0  0  0  0
   12.9979   -0.8206    7.8812 C   0  0  0  0  0  0  0  0  0  0  0  0
   14.3846   -1.2268    8.3345 C   0  0  0  0  0  0  0  0  0  0  0  0
   12.5283    0.4002    8.2042 C   0  0  0  0  0  0  0  0  0  0  0  0
   11.1823    1.0113    7.9554 C   0  0  0  0  0  0  0  0  0  0  0  0
  2 15  2  0  0  0  0
  3 27  1  0  0  0  0
  5 25  1  0  0  0  0
  6 27  2  0  0  0  0
  7  8  1  0  0  0  0
  7  9  1  1  0  0  0
  7 10  1  0  0  0  0
  8  9  1  1  0  0  0
  8 11  1  0  0  0  0
  9 16  1  0  0  0  0
  9 17  1  0  0  0  0
 10 15  1  6  0  0  0
 10 18  1  0  0  0  0
 11 13  1  0  0  0  0
 12 13  1  0  0  0  0
 12 14  1  0  0  0  0
 12 15  1  6  0  0  0
 12 19  1  0  0  0  0
 13 22  1  6  0  0  0
 14 20  1  0  0  0  0
 14 21  1  0  0  0  0
 14  1  1  1  0  0  0
 18 23  2  0  0  0  0
 19 24  2  0  0  0  0
 20 23  1  0  0  0  0
 20  4  1  1  0  0  0
 21 24  1  0  0  0  0
 21  3  1  6  0  0  0
 23 25  1  0  0  0  0
 24 26  1  0  0  0  0
 27 28  1  0  0  0  0
 28 29  1  0  0  0  0
 28 30  2  0  0  0  0
 30 31  1  0  0  0  0
M  END
