638
 OpenBabel10141419013D

419456  0  0  1  0  0  0  0  0999 V2000
    3.9523   24.3562   -1.1148 O   0  0  0  0  0  0  0  0  0  0  0  0
    0.4477   20.8020   -2.4549 O   0  0  0  0  0  0  0  0  0  0  0  0
    2.7990   27.2666    1.3732 O   0  0  0  0  0  0  0  0  0  0  0  0
    2.1216   17.1022   -2.1854 O   0  0  0  0  0  0  0  0  0  0  0  0
    1.8630   28.5737    4.6302 O   0  0  0  0  0  0  0  0  0  0  0  0
    4.0298   15.1131    0.3234 O   0  0  0  0  0  0  0  0  0  0  0  0
   -0.6118   28.5126    8.5660 O   0  0  0  0  0  0  0  0  0  0  0  0
    0.1898   31.3617   11.1899 O   0  0  0  0  0  0  0  0  0  0  0  0
    2.9601   13.9003    2.6136 O   0  0  0  0  0  0  0  0  0  0  0  0
    4.5247   31.7010   12.1859 O   0  0  0  0  0  0  0  0  0  0  0  0
    6.5800   13.4305    4.5896 O   0  0  0  0  0  0  0  0  0  0  0  0
    6.6235   28.3978   15.3386 O   0  0  0  0  0  0  0  0  0  0  0  0
    4.7236   10.9991    6.2893 O   0  0  0  0  0  0  0  0  0  0  0  0
    6.4024   29.3495   19.6108 O   0  0  0  0  0  0  0  0  0  0  0  0
    1.8966    7.3102    4.5223 O   0  0  0  0  0  0  0  0  0  0  0  0
    1.9485    3.5813    5.0953 O   0  0  0  0  0  0  0  0  0  0  0  0
    3.5274   29.2960   17.7050 O   0  0  0  0  0  0  0  0  0  0  0  0
    2.8066    0.0004    7.3604 O   0  0  0  0  0  0  0  0  0  0  0  0
    6.1822   30.1203   16.4455 O   0  0  0  0  0  0  0  0  0  0  0  0
    7.0348   -0.0236    8.0603 O   0  0  0  0  0  0  0  0  0  0  0  0
    6.0482   25.8402   -0.2499 O   0  0  0  0  0  0  0  0  0  0  0  0
    0.5672   22.4694   -0.2900 O   0  0  0  0  0  0  0  0  0  0  0  0
    2.3882   29.9663    1.4787 O   0  0  0  0  0  0  0  0  0  0  0  0
   -0.3508   17.0862   -1.1627 O   0  0  0  0  0  0  0  0  0  0  0  0
    2.6629   29.7487    6.6440 O   0  0  0  0  0  0  0  0  0  0  0  0
    1.9400   13.4867   -0.5235 O   0  0  0  0  0  0  0  0  0  0  0  0
   -2.6861   27.9980   10.3113 O   0  0  0  0  0  0  0  0  0  0  0  0
    7.9517   26.9272   19.2360 O   0  0  0  0  0  0  0  0  0  0  0  0
    2.2937   16.4487    3.0002 O   0  0  0  0  0  0  0  0  0  0  0  0
    2.4374   32.9299   10.9936 O   0  0  0  0  0  0  0  0  0  0  0  0
    5.5484   15.5690    3.8905 O   0  0  0  0  0  0  0  0  0  0  0  0
    7.2148   31.4372   12.5789 O   0  0  0  0  0  0  0  0  0  0  0  0
    7.1952    9.1927    5.5197 O   0  0  0  0  0  0  0  0  0  0  0  0
    6.4630   26.2646   16.8092 O   0  0  0  0  0  0  0  0  0  0  0  0
    4.5427    7.8093    3.3773 O   0  0  0  0  0  0  0  0  0  0  0  0
    5.1648   30.8160   21.3502 O   0  0  0  0  0  0  0  0  0  0  0  0
    0.2413    4.7099    6.2819 O   0  0  0  0  0  0  0  0  0  0  0  0
    3.3144   27.6166   15.3701 O   0  0  0  0  0  0  0  0  0  0  0  0
    0.4832    0.6896    6.4578 O   0  0  0  0  0  0  0  0  0  0  0  0
   11.3058    0.5550    8.5127 O   0  0  0  0  0  0  0  0  0  0  0  0
    8.3024   30.8938   17.2120 O   0  0  0  0  0  0  0  0  0  0  0  0
    6.8223   22.9999   18.7874 O   0  0  0  0  0  0  0  0  0  0  0  0
    5.6485    1.3069    6.5301 O   0  0  0  0  0  0  0  0  0  0  0  0
    8.2984   24.9234   20.6567 O   0  0  0  0  0  0  0  0  0  0  0  0
   10.1568   -1.1154    9.9650 O   0  0  0  0  0  0  0  0  0  0  0  0
   12.1139    3.1947   11.0758 O   0  0  0  0  0  0  0  0  0  0  0  0
    4.5525   22.6382   14.8453 O   0  0  0  0  0  0  0  0  0  0  0  0
    4.6336   21.6984   18.3843 O   0  0  0  0  0  0  0  0  0  0  0  0
   11.2145    3.2707    8.9723 O   0  0  0  0  0  0  0  0  0  0  0  0
   10.3386    6.7130   10.8611 O   0  0  0  0  0  0  0  0  0  0  0  0
    1.9183   24.9627   13.2553 O   0  0  0  0  0  0  0  0  0  0  0  0
   11.5201    7.1902   12.7579 O   0  0  0  0  0  0  0  0  0  0  0  0
    5.2927   26.0779   10.7387 O   0  0  0  0  0  0  0  0  0  0  0  0
    7.3721   24.5803   12.3194 O   0  0  0  0  0  0  0  0  0  0  0  0
    8.0686   10.3217    9.7648 O   0  0  0  0  0  0  0  0  0  0  0  0
    9.9081   11.2219   10.5233 O   0  0  0  0  0  0  0  0  0  0  0  0
    7.8479   27.1300    9.2488 O   0  0  0  0  0  0  0  0  0  0  0  0
    7.0997   27.9070   10.9997 O   0  0  0  0  0  0  0  0  0  0  0  0
    9.5299   13.9855    7.6987 O   0  0  0  0  0  0  0  0  0  0  0  0
   10.4370   11.8917    6.7377 O   0  0  0  0  0  0  0  0  0  0  0  0
   10.0572   26.7420   11.1012 O   0  0  0  0  0  0  0  0  0  0  0  0
   12.1100   27.7756   10.8521 O   0  0  0  0  0  0  0  0  0  0  0  0
    8.4166   10.3419    4.6311 O   0  0  0  0  0  0  0  0  0  0  0  0
    7.0568    9.5356    7.1841 O   0  0  0  0  0  0  0  0  0  0  0  0
   11.7312   24.8313   12.7687 O   0  0  0  0  0  0  0  0  0  0  0  0
    5.6630   22.9270    1.2158 O   0  0  0  0  0  0  0  0  0  0  0  0
   -1.5479   22.0860   -2.2532 O   0  0  0  0  0  0  0  0  0  0  0  0
    5.0835   28.3066   -0.6489 O   0  0  0  0  0  0  0  0  0  0  0  0
    0.7543   16.6181   -4.3933 O   0  0  0  0  0  0  0  0  0  0  0  0
    4.1901   27.8702    7.8875 O   0  0  0  0  0  0  0  0  0  0  0  0
    5.5883   12.8834   -1.0251 O   0  0  0  0  0  0  0  0  0  0  0  0
   -3.5891   29.6766    7.4428 O   0  0  0  0  0  0  0  0  0  0  0  0
    0.2595   14.5073    0.7672 O   0  0  0  0  0  0  0  0  0  0  0  0
    0.5126   32.2691    9.0560 O   0  0  0  0  0  0  0  0  0  0  0  0
    4.8671   13.4724    7.0848 O   0  0  0  0  0  0  0  0  0  0  0  0
    4.5573   30.9159   10.0540 O   0  0  0  0  0  0  0  0  0  0  0  0
    7.0346   12.0340    8.7605 O   0  0  0  0  0  0  0  0  0  0  0  0
    2.1835   27.6001   17.0249 O   0  0  0  0  0  0  0  0  0  0  0  0
    3.7200    5.9878    6.0313 O   0  0  0  0  0  0  0  0  0  0  0  0
    6.2463   27.2456   20.9966 O   0  0  0  0  0  0  0  0  0  0  0  0
   -0.5576    2.4242    4.9978 O   0  0  0  0  0  0  0  0  0  0  0  0
    4.3053   26.4481   19.2680 O   0  0  0  0  0  0  0  0  0  0  0  0
    3.3151   -0.4988    4.4888 O   0  0  0  0  0  0  0  0  0  0  0  0
    8.8590   28.1985   15.3173 O   0  0  0  0  0  0  0  0  0  0  0  0
    5.5109    1.4381   10.1051 O   0  0  0  0  0  0  0  0  0  0  0  0
   10.0999   26.0534   13.6414 O   0  0  0  0  0  0  0  0  0  0  0  0
    3.7844    7.6546    7.0824 O   0  0  0  0  0  0  0  0  0  0  0  0
   10.2982   26.8840   18.5452 O   0  0  0  0  0  0  0  0  0  0  0  0
   10.9712   -0.7327    6.5629 O   0  0  0  0  0  0  0  0  0  0  0  0
    8.0326   19.9185   17.8098 O   0  0  0  0  0  0  0  0  0  0  0  0
    9.3526    2.0669   11.9066 O   0  0  0  0  0  0  0  0  0  0  0  0
    3.1971   21.8813   11.6141 O   0  0  0  0  0  0  0  0  0  0  0  0
   13.5763    6.5882    9.6120 O   0  0  0  0  0  0  0  0  0  0  0  0
    3.2274    9.9336    7.8373 O   0  0  0  0  0  0  0  0  0  0  0  0
    7.4707   24.5967    2.7678 O   0  0  0  0  0  0  0  0  0  0  0  0
   -0.4289   25.3941   -1.6703 O   0  0  0  0  0  0  0  0  0  0  0  0
    4.5126   31.0863   -1.3118 O   0  0  0  0  0  0  0  0  0  0  0  0
   -1.1237   13.8530   -2.5261 O   0  0  0  0  0  0  0  0  0  0  0  0
    5.2053   27.1748    5.3572 O   0  0  0  0  0  0  0  0  0  0  0  0
    4.0836   10.3694   -1.6768 O   0  0  0  0  0  0  0  0  0  0  0  0
   -5.9406   29.0079    9.4543 O   0  0  0  0  0  0  0  0  0  0  0  0
   -0.4159   17.5521    1.4302 O   0  0  0  0  0  0  0  0  0  0  0  0
    3.3375   32.5653    7.5826 O   0  0  0  0  0  0  0  0  0  0  0  0
    3.3372   16.8923    6.0613 O   0  0  0  0  0  0  0  0  0  0  0  0
    6.7912   28.8726    9.1851 O   0  0  0  0  0  0  0  0  0  0  0  0
    7.7389    7.9343    8.8543 O   0  0  0  0  0  0  0  0  0  0  0  0
    2.5027   24.9772   18.5221 O   0  0  0  0  0  0  0  0  0  0  0  0
    6.2522    5.2122    4.7424 O   0  0  0  0  0  0  0  0  0  0  0  0
    7.4917   28.7075   22.9982 O   0  0  0  0  0  0  0  0  0  0  0  0
   -1.9554    5.6983    4.1334 O   0  0  0  0  0  0  0  0  0  0  0  0
    6.3973   24.9689   15.7992 O   0  0  0  0  0  0  0  0  0  0  0  0
    0.2208   -1.1039    3.3376 O   0  0  0  0  0  0  0  0  0  0  0  0
   11.5840   30.1249   15.5539 O   0  0  0  0  0  0  0  0  0  0  0  0
    5.4928    4.0466    8.6628 O   0  0  0  0  0  0  0  0  0  0  0  0
   12.0595   24.8948   20.3072 O   0  0  0  0  0  0  0  0  0  0  0  0
   10.1874   -3.2321    7.0629 O   0  0  0  0  0  0  0  0  0  0  0  0
    5.6317   26.8583   14.0904 O   0  0  0  0  0  0  0  0  0  0  0  0
    8.3388    9.0803   12.9608 O   0  0  0  0  0  0  0  0  0  0  0  0
    5.5805   18.1664   18.9908 O   0  0  0  0  0  0  0  0  0  0  0  0
    7.6621    2.7873    9.6870 O   0  0  0  0  0  0  0  0  0  0  0  0
    0.5625   24.0048   10.8169 O   0  0  0  0  0  0  0  0  0  0  0  0
   14.3659    8.9798   11.3779 O   0  0  0  0  0  0  0  0  0  0  0  0
    8.4632   23.9649   10.8516 O   0  0  0  0  0  0  0  0  0  0  0  0
    8.1407   29.4760    7.4363 O   0  0  0  0  0  0  0  0  0  0  0  0
   12.4862   12.5487    6.3433 O   0  0  0  0  0  0  0  0  0  0  0  0
    8.3830   25.2417   14.8091 O   0  0  0  0  0  0  0  0  0  0  0  0
    6.7571    8.2424   11.5742 O   0  0  0  0  0  0  0  0  0  0  0  0
    6.6534   31.9011    8.7034 O   0  0  0  0  0  0  0  0  0  0  0  0
   11.9619   15.4425    5.3409 O   0  0  0  0  0  0  0  0  0  0  0  0
    6.0410   23.5780    9.6854 O   0  0  0  0  0  0  0  0  0  0  0  0
    2.4042   13.3211    7.6891 O   0  0  0  0  0  0  0  0  0  0  0  0
   12.4739   25.2346    8.3729 O   0  0  0  0  0  0  0  0  0  0  0  0
    9.9766    7.3771    7.0795 O   0  0  0  0  0  0  0  0  0  0  0  0
   12.6260   27.2233    7.0792 O   0  0  0  0  0  0  0  0  0  0  0  0
    9.8491    6.9892    4.0167 O   0  0  0  0  0  0  0  0  0  0  0  0
    0.6091   11.6720    7.1073 O   0  0  0  0  0  0  0  0  0  0  0  0
   11.2492   22.9190   15.5327 O   0  0  0  0  0  0  0  0  0  0  0  0
    5.0561    8.3252   10.3756 O   0  0  0  0  0  0  0  0  0  0  0  0
    8.5302   27.6020   -0.4602 O   0  0  0  0  0  0  0  0  0  0  0  0
   -1.4662   24.3499    2.3131 O   0  0  0  0  0  0  0  0  0  0  0  0
    1.9861   32.8339    1.8061 O   0  0  0  0  0  0  0  0  0  0  0  0
   -2.0282   15.7637    1.0128 O   0  0  0  0  0  0  0  0  0  0  0  0
    2.9417   31.1714    4.3709 O   0  0  0  0  0  0  0  0  0  0  0  0
   -0.3121   10.1281   -1.7014 O   0  0  0  0  0  0  0  0  0  0  0  0
   -4.0899   26.9339   12.5248 O   0  0  0  0  0  0  0  0  0  0  0  0
   -0.2231   17.7247    6.0853 O   0  0  0  0  0  0  0  0  0  0  0  0
    4.2991   35.3712    9.0258 O   0  0  0  0  0  0  0  0  0  0  0  0
    7.1908   17.3640    6.9643 O   0  0  0  0  0  0  0  0  0  0  0  0
    8.9357   32.3061   10.3634 O   0  0  0  0  0  0  0  0  0  0  0  0
    6.6637    6.2724    7.4028 O   0  0  0  0  0  0  0  0  0  0  0  0
    8.8321   24.7041   16.6337 O   0  0  0  0  0  0  0  0  0  0  0  0
    6.6698   23.1391   15.6203 O   0  0  0  0  0  0  0  0  0  0  0  0
    5.9499    4.8489    1.3551 O   0  0  0  0  0  0  0  0  0  0  0  0
    8.3674   20.9427   11.3157 O   0  0  0  0  0  0  0  0  0  0  0  0
    7.3532   31.5299   22.7091 O   0  0  0  0  0  0  0  0  0  0  0  0
   -1.5323    3.2684    8.1375 O   0  0  0  0  0  0  0  0  0  0  0  0
    3.5336    6.3808   10.2621 O   0  0  0  0  0  0  0  0  0  0  0  0
    1.9330   23.8022   16.2612 O   0  0  0  0  0  0  0  0  0  0  0  0
   -0.3184   -1.8072    6.9474 O   0  0  0  0  0  0  0  0  0  0  0  0
    9.9823   33.4902   16.8475 O   0  0  0  0  0  0  0  0  0  0  0  0
    4.5308    4.3609    6.0924 O   0  0  0  0  0  0  0  0  0  0  0  0
   10.4965   23.8300   23.3071 O   0  0  0  0  0  0  0  0  0  0  0  0
    9.8238   -5.0414    9.3918 O   0  0  0  0  0  0  0  0  0  0  0  0
    2.6220   19.1764   20.6252 O   0  0  0  0  0  0  0  0  0  0  0  0
    8.2318    4.1894    7.3437 O   0  0  0  0  0  0  0  0  0  0  0  0
   -2.1892   23.3313   13.9094 O   0  0  0  0  0  0  0  0  0  0  0  0
   11.0536   10.5268   12.7859 O   0  0  0  0  0  0  0  0  0  0  0  0
    7.8721   21.5826   13.1676 O   0  0  0  0  0  0  0  0  0  0  0  0
    5.6035    9.6887    6.2862 O   0  0  0  0  0  0  0  0  0  0  0  0
    5.7831   23.5807   13.3213 O   0  0  0  0  0  0  0  0  0  0  0  0
    0.5174   13.7399    4.9037 O   0  0  0  0  0  0  0  0  0  0  0  0
    3.4699   28.3174   12.2610 O   0  0  0  0  0  0  0  0  0  0  0  0
    8.4899   14.7236    4.9074 O   0  0  0  0  0  0  0  0  0  0  0  0
    7.6574   18.7133   10.6974 O   0  0  0  0  0  0  0  0  0  0  0  0
    4.4176   25.5761   13.0836 O   0  0  0  0  0  0  0  0  0  0  0  0
    2.5678   15.5687    4.6930 O   0  0  0  0  0  0  0  0  0  0  0  0
   12.9711   30.5356    7.8793 O   0  0  0  0  0  0  0  0  0  0  0  0
   10.1087    8.8949    2.0539 O   0  0  0  0  0  0  0  0  0  0  0  0
   -1.6975   11.9656    7.9455 O   0  0  0  0  0  0  0  0  0  0  0  0
   10.9087   28.7583   17.0635 O   0  0  0  0  0  0  0  0  0  0  0  0
    1.4731    4.9703    8.0593 O   0  0  0  0  0  0  0  0  0  0  0  0
   10.0892   19.7205   13.1236 O   0  0  0  0  0  0  0  0  0  0  0  0
    3.5268   24.5235    7.8910 O   0  0  0  0  0  0  0  0  0  0  0  0
    4.6121   17.5281    7.2004 O   0  0  0  0  0  0  0  0  0  0  0  0
    0.5977   14.8420    7.6443 O   0  0  0  0  0  0  0  0  0  0  0  0
    9.7246   16.4160   12.6444 O   0  0  0  0  0  0  0  0  0  0  0  0
   -0.0027   14.7775   10.0980 O   0  0  0  0  0  0  0  0  0  0  0  0
    0.9380   11.1002   10.1010 O   0  0  0  0  0  0  0  0  0  0  0  0
    9.4459   20.7706    8.6740 O   0  0  0  0  0  0  0  0  0  0  0  0
    6.0465   15.8783   10.0948 O   0  0  0  0  0  0  0  0  0  0  0  0
   -2.7061   11.0119   11.6343 O   0  0  0  0  0  0  0  0  0  0  0  0
    4.7291   25.1641    0.2227 C   0  0  2  0  0  0  0  0  0  0  0  0
    0.9798   22.3539   -1.7141 C   0  0  2  0  0  0  0  0  0  0  0  0
    3.2556   28.6885    1.6112 C   0  0  2  0  0  0  0  0  0  0  0  0
    0.5229   17.3875   -2.2543 C   0  0  2  0  0  0  0  0  0  0  0  0
    2.0557   28.4641    6.4301 C   0  0  2  0  0  0  0  0  0  0  0  0
    3.2458   14.4120   -0.8866 C   0  0  2  0  0  0  0  0  0  0  0  0
   -1.7578   29.2379    9.5447 C   0  0  2  0  0  0  0  0  0  0  0  0
    2.4040   15.2583    2.0983 C   0  0  2  0  0  0  0  0  0  0  0  0
    1.8742   31.5223   10.8234 C   0  0  2  0  0  0  0  0  0  0  0  0
    5.3725   14.0999    4.3330 C   0  0  2  0  0  0  0  0  0  0  0  0
    5.9006   30.8466   12.7369 C   0  0  2  0  0  0  0  0  0  0  0  0
    6.6550   11.0537    6.0840 C   0  0  2  0  0  0  0  0  0  0  0  0
    5.6302   27.4405   16.5633 C   0  0  2  0  0  0  0  0  0  0  0  0
    3.5621    7.7589    4.5562 C   0  0  2  0  0  0  0  0  0  0  0  0
    5.2418   29.5933   20.3805 C   0  0  2  0  0  0  0  0  0  0  0  0
    0.7774    4.4400    5.0013 C   0  0  2  0  0  0  0  0  0  0  0  0
    4.2600   28.5200   16.8319 C   0  0  2  0  0  0  0  0  0  0  0  0
    1.9348    0.7424    6.1781 C   0  0  2  0  0  0  0  0  0  0  0  0
    7.7296   29.5640   16.8918 C   0  0  2  0  0  0  0  0  0  0  0  0
    5.6158    0.6616    7.7757 C   0  0  2  0  0  0  0  0  0  0  0  0
    8.4786   25.4569   19.3247 C   0  0  2  0  0  0  0  0  0  0  0  0
   10.0488   -0.2061    8.7285 C   0  0  2  0  0  0  0  0  0  0  0  0
    6.1910   21.8434   17.7358 C   0  0  2  0  0  0  0  0  0  0  0  0
   11.3124    2.4482   10.1558 C   0  0  2  0  0  0  0  0  0  0  0  0
    3.4358   24.0643   13.0573 C   0  0  2  0  0  0  0  0  0  0  0  0
   11.6390    6.3710   11.4512 C   0  0  2  0  0  0  0  0  0  0  0  0
    6.9193   25.8928   11.6723 C   0  0  2  0  0  0  0  0  0  0  0  0
    9.1104    9.8159   10.6474 C   0  0  1  0  0  0  0  0  0  0  0  0
    5.6290   24.2996    1.2849 C   0  0  2  0  0  0  0  0  0  0  0  0
   -0.4223   23.0177   -2.3493 C   0  0  2  0  0  0  0  0  0  0  0  0
    4.3345   29.1765    0.2264 C   0  0  2  0  0  0  0  0  0  0  0  0
   -0.0798   16.3035   -3.2916 C   0  0  2  0  0  0  0  0  0  0  0  0
    3.3533   27.5064    6.7643 C   0  0  2  0  0  0  0  0  0  0  0  0
    4.2032   12.9734   -1.4583 C   0  0  2  0  0  0  0  0  0  0  0  0
   -3.3493   29.5689    8.8408 C   0  0  2  0  0  0  0  0  0  0  0  0
    0.9582   15.2459    1.7013 C   0  0  2  0  0  0  0  0  0  0  0  0
    1.8480   31.7360    9.2463 C   0  0  2  0  0  0  0  0  0  0  0  0
    4.8544   14.4834    5.6606 C   0  0  2  0  0  0  0  0  0  0  0  0
    5.4359   30.4799   11.0451 C   0  0  2  0  0  0  0  0  0  0  0  0
    7.5645   11.0504    7.8937 C   0  0  2  0  0  0  0  0  0  0  0  0
    3.5180   27.0094   17.1576 C   0  0  2  0  0  0  0  0  0  0  0  0
    4.2566    6.5627    4.9966 C   0  0  2  0  0  0  0  0  0  0  0  0
    5.5070   28.4142   21.3937 C   0  0  2  0  0  0  0  0  0  0  0  0
   -0.5013    3.7330    4.4998 C   0  0  2  0  0  0  0  0  0  0  0  0
    4.9761   26.7738   17.9557 C   0  0  2  0  0  0  0  0  0  0  0  0
    2.0166   -0.0275    4.8224 C   0  0  2  0  0  0  0  0  0  0  0  0
    8.9307   29.1747   16.1533 C   0  0  2  0  0  0  0  0  0  0  0  0
    4.9187    1.5601    8.8544 C   0  0  2  0  0  0  0  0  0  0  0  0
    9.9954   25.6454   19.1657 C   0  0  2  0  0  0  0  0  0  0  0  0
   10.0919   -1.1493    7.6010 C   0  0  2  0  0  0  0  0  0  0  0  0
    6.6437   20.3353   17.6399 C   0  0  2  0  0  0  0  0  0  0  0  0
    9.8525    2.0411   10.5778 C   0  0  2  0  0  0  0  0  0  0  0  0
    8.2702   28.2266    9.9933 C   0  0  2  0  0  0  0  0  0  0  0  0
   10.4876   12.8902    7.8187 C   0  0  1  0  0  0  0  0  0  0  0  0
    2.5513   23.0531   12.0690 C   0  0  2  0  0  0  0  0  0  0  0  0
   13.1435    6.8769   10.9511 C   0  0  2  0  0  0  0  0  0  0  0  0
    2.3757   23.7925   -1.7682 C   0  0  0  0  0  0  0  0  0  0  0  0
    3.7532   26.0404    1.4985 C   0  0  0  0  0  0  0  0  0  0  0  0
    0.2652   19.1240   -2.7722 C   0  0  0  0  0  0  0  0  0  0  0  0
    3.1663   28.8807    3.3660 C   0  0  0  0  0  0  0  0  0  0  0  0
    3.0080   15.7289   -2.2223 C   0  0  0  0  0  0  0  0  0  0  0  0
    0.9571   28.3213    8.0405 C   0  0  0  0  0  0  0  0  0  0  0  0
    3.4351   15.9836    1.3221 C   0  0  0  0  0  0  0  0  0  0  0  0
   -1.0922   30.2170   10.9924 C   0  0  0  0  0  0  0  0  0  0  0  0
    4.4443   13.5784    2.9793 C   0  0  0  0  0  0  0  0  0  0  0  0
    2.9702   31.0564   12.0941 C   0  0  0  0  0  0  0  0  0  0  0  0
    6.8838   12.0506    4.8008 C   0  0  0  0  0  0  0  0  0  0  0  0
    5.9462   29.4589   14.1300 C   0  0  0  0  0  0  0  0  0  0  0  0
    3.7096    9.4763    5.4536 C   0  0  0  0  0  0  0  0  0  0  0  0
    5.8545   28.3394   18.4207 C   0  0  0  0  0  0  0  0  0  0  0  0
    1.0233    5.9581    4.1872 C   0  0  0  0  0  0  0  0  0  0  0  0
    4.1602   29.8343   18.8891 C   0  0  0  0  0  0  0  0  0  0  0  0
    2.0883    2.4514    6.0621 C   0  0  0  0  0  0  0  0  0  0  0  0
    4.8896   29.4130   15.9466 C   0  0  0  0  0  0  0  0  0  0  0  0
    7.0958   24.6401    1.3895 C   0  0  1  0  0  0  0  0  0  0  0  0
   -0.8943   24.0788   -1.3733 C   0  0  1  0  0  0  0  0  0  0  0  0
    3.5679   30.3194   -0.5275 C   0  0  1  0  0  0  0  0  0  0  0  0
   -0.1725   14.9042   -2.3067 C   0  0  1  0  0  0  0  0  0  0  0  0
    4.0543   27.9577    5.5744 C   0  0  1  0  0  0  0  0  0  0  0  0
    3.4635   11.5422   -1.0086 C   0  0  1  0  0  0  0  0  0  0  0  0
   -4.6120   28.4970    9.3562 C   0  0  1  0  0  0  0  0  0  0  0  0
    0.2822   16.6069    2.2763 C   0  0  1  0  0  0  0  0  0  0  0  0
    4.3657   -0.4078    7.5383 C   0  0  0  0  0  0  0  0  0  0  0  0
    2.5765   32.9390    8.7026 C   0  0  1  0  0  0  0  0  0  0  0  0
    4.9138   15.9462    5.9921 C   0  0  1  0  0  0  0  0  0  0  0  0
    7.0044   30.4743   10.5285 C   0  0  1  0  0  0  0  0  0  0  0  0
    8.3254    9.1216    8.2589 C   0  0  1  0  0  0  0  0  0  0  0  0
    3.3091   25.6502   17.6923 C   0  0  1  0  0  0  0  0  0  0  0  0
    8.1078   28.1838   18.2149 C   0  0  0  0  0  0  0  0  0  0  0  0
    4.8466    5.5727    4.0312 C   0  0  1  0  0  0  0  0  0  0  0  0
    6.0400   28.9849   22.8457 C   0  0  1  0  0  0  0  0  0  0  0  0
   -1.6770    4.6207    5.0555 C   0  0  1  0  0  0  0  0  0  0  0  0
    4.6806   25.5806   16.1385 C   0  0  1  0  0  0  0  0  0  0  0  0
    0.7492   -0.8944    4.6651 C   0  0  1  0  0  0  0  0  0  0  0  0
    8.4213    0.6112    8.3399 C   0  0  0  0  0  0  0  0  0  0  0  0
    9.9262   30.1468   15.5372 C   0  0  1  0  0  0  0  0  0  0  0  0
    4.7726    2.9229    8.2333 C   0  0  1  0  0  0  0  0  0  0  0  0
    7.8998   24.0598   18.5599 C   0  0  0  0  0  0  0  0  0  0  0  0
   10.6914   25.3634   20.5065 C   0  0  1  0  0  0  0  0  0  0  0  0
   12.0552    1.1527    9.5845 C   0  0  0  0  0  0  0  0  0  0  0  0
   10.6154   -2.4153    8.1351 C   0  0  1  0  0  0  0  0  0  0  0  0
    6.7843   26.3363   13.2792 C   0  0  2  0  0  0  0  0  0  0  0  0
    8.0903    9.8816   11.7893 C   0  0  2  0  0  0  0  0  0  0  0  0
    7.0481   26.0153    0.8474 C   0  0  1  0  0  0  0  0  0  0  0  0
   -0.1117   23.7336   -0.1152 C   0  0  1  0  0  0  0  0  0  0  0  0
    5.1134   22.3451   16.3953 C   0  0  0  0  0  0  0  0  0  0  0  0
    3.1330   31.0068    0.7663 C   0  0  1  0  0  0  0  0  0  0  0  0
   -0.3922   15.6601   -1.0076 C   0  0  1  0  0  0  0  0  0  0  0  0
    3.9464   29.5482    6.0054 C   0  0  1  0  0  0  0  0  0  0  0  0
    1.8788   11.9362   -1.0898 C   0  0  1  0  0  0  0  0  0  0  0  0
   -4.1613   28.2741   10.7092 C   0  0  1  0  0  0  0  0  0  0  0  0
    1.0536   17.0672    3.5372 C   0  0  1  0  0  0  0  0  0  0  0  0
    3.3216   33.3355    9.8849 C   0  0  1  0  0  0  0  0  0  0  0  0
    5.6977   16.5306    4.9480 C   0  0  1  0  0  0  0  0  0  0  0  0
    7.9228   30.5512   11.7048 C   0  0  1  0  0  0  0  0  0  0  0  0
    8.1767    8.2355    6.9573 C   0  0  1  0  0  0  0  0  0  0  0  0
    5.2241   24.9799   17.5982 C   0  0  1  0  0  0  0  0  0  0  0  0
    5.3408    6.5419    3.0686 C   0  0  1  0  0  0  0  0  0  0  0  0
    5.4499   19.5535   18.6011 C   0  0  1  0  0  0  0  0  0  0  0  0
    9.0431    3.0810    9.8142 C   0  0  1  0  0  0  0  0  0  0  0  0
    5.4023   30.5135   22.8754 C   0  0  1  0  0  0  0  0  0  0  0  0
   -1.1001    5.1423    6.3657 C   0  0  1  0  0  0  0  0  0  0  0  0
    3.4670   25.9946   15.2728 C   0  0  1  0  0  0  0  0  0  0  0  0
   -0.2410   -0.0589    5.4275 C   0  0  1  0  0  0  0  0  0  0  0  0
   11.9093    4.5511   11.7014 C   0  0  0  0  0  0  0  0  0  0  0  0
    9.6140   31.1254   16.6059 C   0  0  1  0  0  0  0  0  0  0  0  0
    5.0272    2.4803    6.8387 C   0  0  1  0  0  0  0  0  0  0  0  0
    9.5478   24.4792   21.2178 C   0  0  1  0  0  0  0  0  0  0  0  0
    9.8967   -2.4867    9.4857 C   0  0  1  0  0  0  0  0  0  0  0  0
    3.5589   25.4236   11.4452 C   0  0  0  0  0  0  0  0  0  0  0  0
    0.8241   23.2400   12.0621 C   0  0  1  0  0  0  0  0  0  0  0  0
   13.0965    8.3406   11.3159 C   0  0  1  0  0  0  0  0  0  0  0  0
   11.3491   26.4859   10.6199 C   0  0  2  0  0  0  0  0  0  0  0  0
    8.6603    9.9844    6.0838 C   0  0  1  0  0  0  0  0  0  0  0  0
    4.0928   20.3948   18.6298 C   0  0  1  0  0  0  0  0  0  0  0  0
    9.8728    3.2808    8.5705 C   0  0  1  0  0  0  0  0  0  0  0  0
    9.6715    7.9619   10.3501 C   0  0  0  0  0  0  0  0  0  0  0  0
    8.1149   29.8654    8.7518 C   0  0  2  0  0  0  0  0  0  0  0  0
   11.7431   13.5317    7.0936 C   0  0  2  0  0  0  0  0  0  0  0  0
    0.4176   24.1212   13.4278 C   0  0  1  0  0  0  0  0  0  0  0  0
   12.4597    8.3446   12.7438 C   0  0  1  0  0  0  0  0  0  0  0  0
    7.3264   25.2633   14.0825 C   0  0  1  0  0  0  0  0  0  0  0  0
    6.7012    9.6307   11.1627 C   0  0  1  0  0  0  0  0  0  0  0  0
    7.6652   26.0414   10.1554 C   0  0  0  0  0  0  0  0  0  0  0  0
    7.6862   24.0603   13.6164 C   0  0  1  0  0  0  0  0  0  0  0  0
    6.6494    9.9511    9.6716 C   0  0  1  0  0  0  0  0  0  0  0  0
   10.7213   12.0982    9.4462 C   0  0  0  0  0  0  0  0  0  0  0  0
    6.2178   30.3429    8.9834 C   0  0  1  0  0  0  0  0  0  0  0  0
   11.1729   14.4013    5.9510 C   0  0  1  0  0  0  0  0  0  0  0  0
    9.5697   27.8979   10.5201 C   0  0  0  0  0  0  0  0  0  0  0  0
   11.4919   26.1016    9.0158 C   0  0  2  0  0  0  0  0  0  0  0  0
    9.5801    8.4117    5.6619 C   0  0  2  0  0  0  0  0  0  0  0  0
    6.0667   28.8177   10.6509 C   0  0  1  0  0  0  0  0  0  0  0  0
   10.0958   14.9801    6.7714 C   0  0  1  0  0  0  0  0  0  0  0  0
   10.4316   24.6597   13.3172 C   0  0  2  0  0  0  0  0  0  0  0  0
    4.4310    8.5305    7.8210 C   0  0  1  0  0  0  0  0  0  0  0  0
    9.3059   11.2188    6.7640 C   0  0  0  0  0  0  0  0  0  0  0  0
   11.9598   27.4340    8.4060 C   0  0  1  0  0  0  0  0  0  0  0  0
    8.8257    7.8683    4.4491 C   0  0  1  0  0  0  0  0  0  0  0  0
   11.7578   25.2263   11.3777 C   0  0  0  0  0  0  0  0  0  0  0  0
   12.5167   28.4041    9.5328 C   0  0  1  0  0  0  0  0  0  0  0  0
    8.4932    9.2243    3.7120 C   0  0  1  0  0  0  0  0  0  0  0  0
   10.4110   23.8886   14.9683 C   0  0  2  0  0  0  0  0  0  0  0  0
    4.7414    7.8366    9.1364 C   0  0  2  0  0  0  0  0  0  0  0  0
    6.0013    8.2609    7.1180 C   0  0  0  0  0  0  0  0  0  0  0  0
    8.4776   26.4432    0.3719 C   0  0  0  0  0  0  0  0  0  0  0  0
   -0.6235   24.4220    1.1908 C   0  0  0  0  0  0  0  0  0  0  0  0
    2.2733   32.2179    0.5572 C   0  0  0  0  0  0  0  0  0  0  0  0
   -1.6501   15.1280   -0.2023 C   0  0  0  0  0  0  0  0  0  0  0  0
    4.1049   30.8053    5.1478 C   0  0  0  0  0  0  0  0  0  0  0  0
    0.2279   11.3512   -1.0885 C   0  0  0  0  0  0  0  0  0  0  0  0
   -4.9672   27.1474   11.4413 C   0  0  0  0  0  0  0  0  0  0  0  0
    0.4533   16.8446    5.1850 C   0  0  0  0  0  0  0  0  0  0  0  0
    3.4775   34.8183   10.0294 C   0  0  0  0  0  0  0  0  0  0  0  0
    6.9487   16.5905    5.7412 C   0  0  0  0  0  0  0  0  0  0  0  0
    9.1648   31.0961   11.0769 C   0  0  0  0  0  0  0  0  0  0  0  0
    7.9017    6.6110    6.8424 C   0  0  0  0  0  0  0  0  0  0  0  0
    4.9950   23.9667   15.7264 C   0  0  0  0  0  0  0  0  0  0  0  0
   10.1131   24.9765   16.0089 C   0  0  1  0  0  0  0  0  0  0  0  0
    5.3074    6.1014    1.5938 C   0  0  0  0  0  0  0  0  0  0  0  0
    6.2211   31.6439   23.5524 C   0  0  0  0  0  0  0  0  0  0  0  0
   -1.6414    4.6548    7.8005 C   0  0  0  0  0  0  0  0  0  0  0  0
    3.4156    7.2892    9.2378 C   0  0  1  0  0  0  0  0  0  0  0  0
    2.6022   24.3956   15.2481 C   0  0  0  0  0  0  0  0  0  0  0  0
   -1.1763   -0.9995    6.1360 C   0  0  0  0  0  0  0  0  0  0  0  0
    9.9908   32.4242   15.9295 C   0  0  0  0  0  0  0  0  0  0  0  0
    5.4150    3.4099    5.8992 C   0  0  0  0  0  0  0  0  0  0  0  0
    9.3153   24.3892   22.7634 C   0  0  0  0  0  0  0  0  0  0  0  0
   10.1368   -3.9006   10.2448 C   0  0  0  0  0  0  0  0  0  0  0  0
   10.0532   26.3557   15.1572 C   0  0  1  0  0  0  0  0  0  0  0  0
    3.0328   20.4297   20.0573 C   0  0  0  0  0  0  0  0  0  0  0  0
    9.5458    4.4723    7.7964 C   0  0  0  0  0  0  0  0  0  0  0  0
    3.3193    6.6672    7.9484 C   0  0  1  0  0  0  0  0  0  0  0  0
    6.9349   23.1271   10.8902 C   0  0  2  0  0  0  0  0  0  0  0  0
    9.4182   23.7201   12.0074 C   0  0  0  0  0  0  0  0  0  0  0  0
    1.8051   12.3608    6.7395 C   0  0  2  0  0  0  0  0  0  0  0  0
   -1.0342   23.8811   14.5637 C   0  0  0  0  0  0  0  0  0  0  0  0
   12.1075    9.8372   13.4047 C   0  0  0  0  0  0  0  0  0  0  0  0
    7.7805   22.5526   14.0783 C   0  0  0  0  0  0  0  0  0  0  0  0
    5.4860   10.3280    8.1204 C   0  0  0  0  0  0  0  0  0  0  0  0
    5.7863   23.2965   12.0377 C   0  0  2  0  0  0  0  0  0  0  0  0
    2.7562   11.1604    6.5792 C   0  0  0  0  0  0  0  0  0  0  0  0
    1.7442   13.3264    5.3775 C   0  0  2  0  0  0  0  0  0  0  0  0
    4.6737   28.9199   12.0957 C   0  0  0  0  0  0  0  0  0  0  0  0
    9.1684   15.5596    5.8068 C   0  0  0  0  0  0  0  0  0  0  0  0
    5.2205   24.6063   11.9158 C   0  0  1  0  0  0  0  0  0  0  0  0
    2.1707   14.7713    5.7257 C   0  0  1  0  0  0  0  0  0  0  0  0
   12.5692   30.1175    9.2107 C   0  0  0  0  0  0  0  0  0  0  0  0
    9.6673    9.8000    3.0070 C   0  0  0  0  0  0  0  0  0  0  0  0
    4.7879   24.2312   10.1297 C   0  0  1  0  0  0  0  0  0  0  0  0
    3.0003   14.4157    6.8287 C   0  0  1  0  0  0  0  0  0  0  0  0
    7.4466   21.7144   10.5218 C   0  0  0  0  0  0  0  0  0  0  0  0
   11.0008   27.7569   15.6700 C   0  0  0  0  0  0  0  0  0  0  0  0
    2.0191    6.0042    7.2792 C   0  0  0  0  0  0  0  0  0  0  0  0
    8.8002   19.6283   10.9300 C   0  0  2  0  0  0  0  0  0  0  0  0
   -0.5017   12.5342    7.2626 C   0  0  1  0  0  0  0  0  0  0  0  0
    9.5512   18.8575   12.1096 C   0  0  2  0  0  0  0  0  0  0  0  0
    3.8005   25.2732    9.0561 C   0  0  0  0  0  0  0  0  0  0  0  0
    3.8720   15.8627    7.7917 C   0  0  0  0  0  0  0  0  0  0  0  0
   -0.1450   13.7603    8.1155 C   0  0  1  0  0  0  0  0  0  0  0  0
    8.7778   17.5125   12.4782 C   0  0  1  0  0  0  0  0  0  0  0  0
    7.9543   17.3391   11.1818 C   0  0  1  0  0  0  0  0  0  0  0  0
    0.3210   13.4660    9.5338 C   0  0  2  0  0  0  0  0  0  0  0  0
   -0.1860   12.0933   10.0644 C   0  0  1  0  0  0  0  0  0  0  0  0
   -1.5354   11.4873    9.3325 C   0  0  1  0  0  0  0  0  0  0  0  0
    9.9138   19.9455    9.7574 C   0  0  0  0  0  0  0  0  0  0  0  0
    6.7481   16.2194   11.3006 C   0  0  0  0  0  0  0  0  0  0  0  0
   -2.9676   11.5635   10.3238 C   0  0  0  0  0  0  0  0  0  0  0  0
  1248  1  0  0  0  0
  2250  1  0  0  0  0
  3249  1  0  0  0  0
  4252  1  0  0  0  0
  5251  1  0  0  0  0
  6254  1  0  0  0  0
  7253  1  0  0  0  0
  8255  1  0  0  0  0
  9256  1  0  0  0  0
 10257  1  0  0  0  0
 11258  1  0  0  0  0
 12259  1  0  0  0  0
 13260  1  0  0  0  0
 14261  1  0  0  0  0
 15262  1  0  0  0  0
 16264  1  0  0  0  0
 17263  1  0  0  0  0
 18274  1  0  0  0  0
 19265  1  0  0  0  0
 20286  1  0  0  0  0
 21192  1  0  0  0  0
 21295  1  0  0  0  0
 22193  1  0  0  0  0
 22296  1  0  0  0  0
 23194  1  0  0  0  0
 23298  1  0  0  0  0
 24195  1  0  0  0  0
 24299  1  0  0  0  0
 25196  1  0  0  0  0
 25300  1  0  0  0  0
 26197  1  0  0  0  0
 26301  1  0  0  0  0
 27198  1  0  0  0  0
 27302  1  0  0  0  0
 28280  1  0  0  0  0
 29199  1  0  0  0  0
 29303  1  0  0  0  0
 30200  1  0  0  0  0
 30304  1  0  0  0  0
 31201  1  0  0  0  0
 31305  1  0  0  0  0
 32202  1  0  0  0  0
 32306  1  0  0  0  0
 33203  1  0  0  0  0
 33307  1  0  0  0  0
 34204  1  0  0  0  0
 34308  1  0  0  0  0
 35205  1  0  0  0  0
 35309  1  0  0  0  0
 36206  1  0  0  0  0
 36312  1  0  0  0  0
 37207  1  0  0  0  0
 37313  1  0  0  0  0
 38208  1  0  0  0  0
 38314  1  0  0  0  0
 39209  1  0  0  0  0
 39315  1  0  0  0  0
 40291  1  0  0  0  0
 41210  1  0  0  0  0
 41317  1  0  0  0  0
 42289  1  0  0  0  0
 43211  1  0  0  0  0
 43318  1  0  0  0  0
 44212  1  0  0  0  0
 44319  1  0  0  0  0
 45213  1  0  0  0  0
 45320  1  0  0  0  0
 46316  1  0  0  0  0
 47297  1  0  0  0  0
 48214  1  0  0  0  0
 48326  1  0  0  0  0
 49215  1  0  0  0  0
 49327  1  0  0  0  0
 50328  1  0  0  0  0
 51216  1  0  0  0  0
 51331  1  0  0  0  0
 52217  1  0  0  0  0
 52332  1  0  0  0  0
 53321  1  0  0  0  0
 54218  1  0  0  0  0
 54336  1  0  0  0  0
 55219  1  0  0  0  0
 55337  1  0  0  0  0
 56338  1  0  0  0  0
 57335  1  0  0  0  0
 58244  1  0  0  0  0
 58344  1  0  0  0  0
 59245  1  0  0  0  0
 59345  1  0  0  0  0
 60348  1  0  0  0  0
 61341  1  0  0  0  0
 62324  1  0  0  0  0
 62352  1  0  0  0  0
 63325  1  0  0  0  0
 63353  1  0  0  0  0
 64356  1  0  0  0  0
 65351  1  0  0  0  0
 86346  1  0  0  0  0
 86381  1  0  0  0  0
 87347  1  0  0  0  0
 87384  1  0  0  0  0
 94393  1  0  0  0  0
123386  1  0  0  0  0
130385  1  0  0  0  0
130401  1  0  0  0  0
131387  1  0  0  0  0
131402  1  0  0  0  0
139357  1  0  0  0  0
140358  1  0  0  0  0
141359  1  0  0  0  0
142360  1  0  0  0  0
143361  1  0  0  0  0
144362  1  0  0  0  0
145363  1  0  0  0  0
146364  1  0  0  0  0
147365  1  0  0  0  0
148366  1  0  0  0  0
149367  1  0  0  0  0
150368  1  0  0  0  0
152369  1  0  0  0  0
153371  1  0  0  0  0
154403  1  0  0  0  0
155372  1  0  0  0  0
156373  1  0  0  0  0
158375  1  0  0  0  0
159376  1  0  0  0  0
160377  1  0  0  0  0
161378  1  0  0  0  0
162379  1  0  0  0  0
163380  1  0  0  0  0
164382  1  0  0  0  0
165383  1  0  0  0  0
166388  1  0  0  0  0
167389  1  0  0  0  0
168390  1  0  0  0  0
169391  1  0  0  0  0
172395  1  0  0  0  0
173396  1  0  0  0  0
174406  1  0  0  0  0
174413  1  0  0  0  0
177399  1  0  0  0  0
178400  1  0  0  0  0
179407  1  0  0  0  0
179416  1  0  0  0  0
180404  1  0  0  0  0
181405  1  0  0  0  0
183409  1  0  0  0  0
184410  1  0  0  0  0
189417  1  0  0  0  0
190418  1  0  0  0  0
191419  1  0  0  0  0
192  1  1  6  0  0  0
192220  1  0  0  0  0
192249  1  0  0  0  0
193221  1  0  0  0  0
193248  1  6  0  0  0
193  2  1  0  0  0  0
194  3  1  6  0  0  0
194222  1  0  0  0  0
194251  1  0  0  0  0
195223  1  0  0  0  0
195250  1  6  0  0  0
195  4  1  0  0  0  0
196  5  1  6  0  0  0
196224  1  0  0  0  0
196253  1  0  0  0  0
197225  1  0  0  0  0
197252  1  6  0  0  0
197  6  1  0  0  0  0
198  7  1  6  0  0  0
198226  1  0  0  0  0
198255  1  0  0  0  0
199227  1  0  0  0  0
199254  1  6  0  0  0
199  9  1  0  0  0  0
200  8  1  1  0  0  0
200228  1  0  0  0  0
200257  1  0  0  0  0
201229  1  0  0  0  0
201256  1  6  0  0  0
201 11  1  0  0  0  0
202 10  1  1  0  0  0
202230  1  0  0  0  0
202259  1  0  0  0  0
203231  1  0  0  0  0
203258  1  6  0  0  0
203 13  1  0  0  0  0
204 12  1  6  0  0  0
204232  1  0  0  0  0
204261  1  0  0  0  0
205233  1  0  0  0  0
205260  1  1  0  0  0
205 15  1  0  0  0  0
206 14  1  6  0  0  0
206234  1  0  0  0  0
206263  1  0  0  0  0
207235  1  0  0  0  0
207262  1  6  0  0  0
207 16  1  0  0  0  0
208 17  1  1  0  0  0
208236  1  0  0  0  0
208265  1  0  0  0  0
209237  1  0  0  0  0
209264  1  6  0  0  0
209 18  1  0  0  0  0
210 19  1  6  0  0  0
210238  1  0  0  0  0
210280  1  0  0  0  0
211239  1  0  0  0  0
211274  1  6  0  0  0
211 20  1  0  0  0  0
212 28  1  6  0  0  0
212240  1  0  0  0  0
212289  1  0  0  0  0
213241  1  0  0  0  0
213286  1  1  0  0  0
213 40  1  0  0  0  0
214 42  1  1  0  0  0
214242  1  0  0  0  0
214297  1  0  0  0  0
215243  1  0  0  0  0
215291  1  6  0  0  0
215 46  1  0  0  0  0
216 47  1  1  0  0  0
216246  1  0  0  0  0
216321  1  0  0  0  0
217247  1  0  0  0  0
217316  1  1  0  0  0
217 50  1  0  0  0  0
218 53  1  6  0  0  0
218293  1  0  0  0  0
218335  1  0  0  0  0
219294  1  0  0  0  0
219328  1  6  0  0  0
219 56  1  0  0  0  0
220 66  1  6  0  0  0
220266  1  0  0  0  0
221 67  1  1  0  0  0
221267  1  0  0  0  0
222 68  1  6  0  0  0
222268  1  0  0  0  0
223 69  1  6  0  0  0
223269  1  0  0  0  0
224 70  1  6  0  0  0
224270  1  0  0  0  0
225 71  1  1  0  0  0
225271  1  0  0  0  0
226 72  1  6  0  0  0
226272  1  0  0  0  0
227 73  1  1  0  0  0
227273  1  0  0  0  0
228 74  1  1  0  0  0
228275  1  0  0  0  0
229 75  1  1  0  0  0
229276  1  0  0  0  0
230 76  1  6  0  0  0
230277  1  0  0  0  0
231 77  1  1  0  0  0
231278  1  0  0  0  0
232 78  1  6  0  0  0
232279  1  0  0  0  0
233 79  1  6  0  0  0
233281  1  0  0  0  0
234 80  1  6  0  0  0
234282  1  0  0  0  0
235 81  1  1  0  0  0
235283  1  0  0  0  0
236 82  1  1  0  0  0
236284  1  0  0  0  0
237 83  1  1  0  0  0
237285  1  0  0  0  0
238 84  1  6  0  0  0
238287  1  0  0  0  0
239 85  1  1  0  0  0
239288  1  0  0  0  0
240 88  1  1  0  0  0
240290  1  0  0  0  0
241 89  1  6  0  0  0
241292  1  0  0  0  0
242 90  1  1  0  0  0
242310  1  0  0  0  0
243 91  1  1  0  0  0
243311  1  0  0  0  0
244 57  1  6  0  0  0
244329  1  0  0  0  0
244341  1  0  0  0  0
245330  1  0  0  0  0
245338  1  1  0  0  0
245 60  1  0  0  0  0
246 92  1  1  0  0  0
246322  1  0  0  0  0
247 93  1  6  0  0  0
247323  1  0  0  0  0
266295  1  0  0  0  0
266 95  1  1  0  0  0
267296  1  0  0  0  0
267 96  1  6  0  0  0
268298  1  0  0  0  0
268 97  1  6  0  0  0
269299  1  0  0  0  0
269 98  1  6  0  0  0
270300  1  0  0  0  0
270 99  1  1  0  0  0
271301  1  0  0  0  0
271100  1  6  0  0  0
272302  1  0  0  0  0
272101  1  1  0  0  0
273303  1  0  0  0  0
273102  1  6  0  0  0
275304  1  0  0  0  0
275103  1  6  0  0  0
276305  1  0  0  0  0
276104  1  6  0  0  0
277306  1  0  0  0  0
277105  1  1  0  0  0
278307  1  0  0  0  0
278106  1  6  0  0  0
279308  1  0  0  0  0
279107  1  1  0  0  0
281309  1  0  0  0  0
281108  1  1  0  0  0
282312  1  0  0  0  0
282109  1  1  0  0  0
283313  1  0  0  0  0
283110  1  6  0  0  0
284314  1  0  0  0  0
284111  1  6  0  0  0
285315  1  0  0  0  0
285112  1  6  0  0  0
287317  1  0  0  0  0
287113  1  1  0  0  0
288318  1  0  0  0  0
288114  1  6  0  0  0
290319  1  0  0  0  0
290115  1  6  0  0  0
292320  1  0  0  0  0
292116  1  6  0  0  0
293117  1  1  0  0  0
293333  1  0  0  0  0
294118  1  6  0  0  0
294334  1  0  0  0  0
295357  1  6  0  0  0
296358  1  1  0  0  0
298359  1  6  0  0  0
299360  1  1  0  0  0
300361  1  6  0  0  0
301362  1  1  0  0  0
302363  1  6  0  0  0
303364  1  1  0  0  0
304365  1  6  0  0  0
305366  1  1  0  0  0
306367  1  6  0  0  0
307368  1  1  0  0  0
308369  1  6  0  0  0
309371  1  6  0  0  0
310326  1  0  0  0  0
310119  1  6  0  0  0
311327  1  0  0  0  0
311120  1  6  0  0  0
312372  1  6  0  0  0
313373  1  1  0  0  0
314375  1  1  0  0  0
315376  1  1  0  0  0
317377  1  6  0  0  0
318378  1  1  0  0  0
319379  1  1  0  0  0
320380  1  1  0  0  0
322331  1  0  0  0  0
322121  1  6  0  0  0
323332  1  0  0  0  0
323122  1  1  0  0  0
324 61  1  1  0  0  0
324342  1  0  0  0  0
324351  1  0  0  0  0
325343  1  0  0  0  0
325348  1  1  0  0  0
325 64  1  0  0  0  0
326382  1  1  0  0  0
327383  1  1  0  0  0
329124  1  6  0  0  0
329339  1  0  0  0  0
330125  1  6  0  0  0
330340  1  0  0  0  0
331388  1  1  0  0  0
332389  1  6  0  0  0
333336  1  0  0  0  0
333126  1  6  0  0  0
334337  1  0  0  0  0
334127  1  6  0  0  0
336390  1  1  0  0  0
337391  1  1  0  0  0
339344  1  0  0  0  0
339128  1  1  0  0  0
340345  1  0  0  0  0
340129  1  1  0  0  0
342132  1  6  0  0  0
342349  1  0  0  0  0
343133  1  1  0  0  0
343350  1  0  0  0  0
344395  1  6  0  0  0
345396  1  6  0  0  0
346 65  1  6  0  0  0
346354  1  0  0  0  0
346386  1  0  0  0  0
347355  1  0  0  0  0
347356  1  6  0  0  0
347 94  1  0  0  0  0
349352  1  0  0  0  0
349134  1  6  0  0  0
350353  1  0  0  0  0
350135  1  6  0  0  0
352399  1  6  0  0  0
353400  1  1  0  0  0
354137  1  1  0  0  0
354370  1  0  0  0  0
355138  1  1  0  0  0
355374  1  0  0  0  0
370381  1  0  0  0  0
370151  1  6  0  0  0
374384  1  0  0  0  0
374157  1  1  0  0  0
381404  1  1  0  0  0
384405  1  6  0  0  0
385123  1  1  0  0  0
385392  1  0  0  0  0
385403  1  0  0  0  0
387394  1  0  0  0  0
387393  1  6  0  0  0
387136  1  0  0  0  0
392170  1  1  0  0  0
392397  1  0  0  0  0
394171  1  1  0  0  0
394398  1  0  0  0  0
397401  1  0  0  0  0
397175  1  1  0  0  0
398402  1  0  0  0  0
398176  1  6  0  0  0
401409  1  6  0  0  0
402410  1  1  0  0  0
406154  1  1  0  0  0
406408  1  0  0  0  0
406417  1  0  0  0  0
407411  1  0  0  0  0
407136  1  1  0  0  0
408182  1  1  0  0  0
408412  1  0  0  0  0
411414  1  0  0  0  0
411185  1  6  0  0  0
412413  1  0  0  0  0
412186  1  6  0  0  0
413418  1  1  0  0  0
414187  1  1  0  0  0
414415  1  0  0  0  0
415416  1  0  0  0  0
415188  1  6  0  0  0
416419  1  1  0  0  0
M  END
