
 OpenBabel10141418233D

 12 12  0  0  0  0  0  0  0  0999 V2000
   -0.5667    1.4301    0.3989 C   0  0  0  0  0  0  0  0  0  0  0  0
   -1.2557    0.2343    0.1866 C   0  0  0  0  0  0  0  0  0  0  0  0
   -0.5585   -0.9641   -0.0297 C   0  0  0  0  0  0  0  0  0  0  0  0
    0.8429   -0.9443   -0.0245 C   0  0  0  0  0  0  0  0  0  0  0  0
    1.5267    0.2547    0.1842 C   0  0  0  0  0  0  0  0  0  0  0  0
    0.8279    1.4422    0.3965 C   0  0  0  0  0  0  0  0  0  0  0  0
    3.6058    0.2639    0.1740 I   0  0  0  0  0  0  0  0  0  0  0  0
   -1.3079   -2.2554   -0.2581 C   0  0  0  0  0  0  0  0  0  0  0  0
   -2.2115   -2.1838   -1.4037 N   0  0  0  0  0  0  0  0  0  0  0  0
   -1.7940   -2.5299   -2.5579 C   0  0  0  0  0  0  0  0  0  0  0  0
   -0.5822   -2.9725   -2.9644 N   0  0  0  0  0  0  0  0  0  0  0  0
   -2.6347   -2.4826   -3.6150 N   0  0  0  0  0  0  0  0  0  0  0  0
  1  2  2  0  0  0  0
  1  6  1  0  0  0  0
  2  3  1  0  0  0  0
  3  4  2  0  0  0  0
  3  8  1  0  0  0  0
  4  5  1  0  0  0  0
  5  6  2  0  0  0  0
  5  7  1  0  0  0  0
  8  9  1  0  0  0  0
  9 10  2  0  0  0  0
 10 11  1  0  0  0  0
 10 12  1  0  0  0  0
M  END
