
 OpenBabel10141417483D

 34 35  0  0  0  0  0  0  0  0999 V2000
    5.0418    2.8036   -3.2125 I   0  0  0  0  0  0  0  0  0  0  0  0
   -5.0626    5.7001   -5.1752 I   0  0  0  0  0  0  0  0  0  0  0  0
    1.2496   -0.4761    0.2908 I   0  0  0  0  0  0  0  0  0  0  0  0
   -6.3248    6.2229    0.8080 I   0  0  0  0  0  0  0  0  0  0  0  0
    5.2921   -3.3013   -2.8587 I   0  0  0  0  0  0  0  0  0  0  0  0
   -8.3405   10.4437   -2.7342 I   0  0  0  0  0  0  0  0  0  0  0  0
    2.8207    2.5777    0.4660 O   0  0  0  0  0  0  0  0  0  0  0  0
   -3.3086    6.6045   -0.5996 O   0  0  0  0  0  0  0  0  0  0  0  0
    6.4852   -0.9452   -4.5595 O   0  0  0  0  0  0  0  0  0  0  0  0
   -5.2973    8.8165   -5.6427 O   0  0  0  0  0  0  0  0  0  0  0  0
    4.9506    0.3256   -5.5845 O   0  0  0  0  0  0  0  0  0  0  0  0
   -7.4602    9.3073   -5.6260 O   0  0  0  0  0  0  0  0  0  0  0  0
    2.2132    2.1185   -1.7210 N   0  0  0  0  0  0  0  0  0  0  0  0
   -4.6430    5.3498   -2.0240 N   0  0  0  0  0  0  0  0  0  0  0  0
   -0.1985    3.6292   -0.8349 C   0  0  0  0  0  0  0  0  0  0  0  0
   -1.1531    4.8199   -0.9058 C   0  0  0  0  0  0  0  0  0  0  0  0
    1.2550    4.0526   -0.6163 C   0  0  0  0  0  0  0  0  0  0  0  0
   -2.5999    4.3676   -1.1333 C   0  0  0  0  0  0  0  0  0  0  0  0
    2.1667    2.8388   -0.5377 C   0  0  0  0  0  0  0  0  0  0  0  0
   -3.5362    5.5610   -1.2047 C   0  0  0  0  0  0  0  0  0  0  0  0
    3.0051    0.9486   -1.8626 C   0  0  0  0  0  0  0  0  0  0  0  0
   -5.5765    6.4075   -2.2270 C   0  0  0  0  0  0  0  0  0  0  0  0
    4.0009    0.9290   -2.8633 C   0  0  0  0  0  0  0  0  0  0  0  0
   -5.7801    6.9080   -3.5385 C   0  0  0  0  0  0  0  0  0  0  0  0
    2.7682   -0.2312   -1.1450 C   0  0  0  0  0  0  0  0  0  0  0  0
   -6.2764    6.9969   -1.1609 C   0  0  0  0  0  0  0  0  0  0  0  0
    4.6222   -0.2659   -3.2793 C   0  0  0  0  0  0  0  0  0  0  0  0
   -6.5033    8.1074   -3.7552 C   0  0  0  0  0  0  0  0  0  0  0  0
    3.5098   -1.3845   -1.4374 C   0  0  0  0  0  0  0  0  0  0  0  0
   -7.0954    8.1033   -1.3887 C   0  0  0  0  0  0  0  0  0  0  0  0
    4.3974   -1.4223   -2.5246 C   0  0  0  0  0  0  0  0  0  0  0  0
   -7.1756    8.6856   -2.6617 C   0  0  0  0  0  0  0  0  0  0  0  0
    5.3322   -0.2515   -4.5866 C   0  0  0  0  0  0  0  0  0  0  0  0
   -6.5285    8.7832   -5.0833 C   0  0  0  0  0  0  0  0  0  0  0  0
  1 23  1  0  0  0  0
  2 24  1  0  0  0  0
  3 25  1  0  0  0  0
  4 26  1  0  0  0  0
  5 31  1  0  0  0  0
  6 32  1  0  0  0  0
  7 19  2  0  0  0  0
  8 20  2  0  0  0  0
  9 33  1  0  0  0  0
 10 34  1  0  0  0  0
 11 33  2  0  0  0  0
 12 34  2  0  0  0  0
 13 19  1  0  0  0  0
 13 21  1  0  0  0  0
 14 20  1  0  0  0  0
 14 22  1  0  0  0  0
 15 16  1  0  0  0  0
 15 17  1  0  0  0  0
 16 18  1  0  0  0  0
 17 19  1  0  0  0  0
 18 20  1  0  0  0  0
 21 23  1  0  0  0  0
 21 25  2  0  0  0  0
 22 24  1  0  0  0  0
 22 26  2  0  0  0  0
 23 27  2  0  0  0  0
 24 28  2  0  0  0  0
 25 29  1  0  0  0  0
 26 30  1  0  0  0  0
 27 31  1  0  0  0  0
 27 33  1  0  0  0  0
 28 32  1  0  0  0  0
 28 34  1  0  0  0  0
 29 31  2  0  0  0  0
 30 32  2  0  0  0  0
M  END
