
 OpenBabel10141417513D

 23 25  0  0  0  0  0  0  0  0999 V2000
    8.0414   -2.7495   -1.5217 F   0  0  0  0  0  0  0  0  0  0  0  0
    8.9443   -2.0909   -0.7519 C   0  0  0  0  0  0  0  0  0  0  0  0
    8.3631   -0.7609   -0.3118 C   0  0  0  0  0  0  0  0  0  0  0  0
    8.0673    0.1605   -1.5047 C   0  0  0  0  0  0  0  0  0  0  0  0
    7.4880    1.4459   -1.0747 N   0  0  0  0  0  0  0  0  0  0  0  0
    8.3623    2.2785   -0.2430 C   0  0  3  0  0  0  0  0  0  0  0  0
    7.1485    2.3637   -2.1920 C   0  0  3  0  0  0  0  0  0  0  0  0
    9.2830    2.9721   -1.2569 C   0  0  0  0  0  0  0  0  0  0  0  0
    8.5347    2.8957   -2.5871 C   0  0  0  0  0  0  0  0  0  0  0  0
    7.4782    3.2764    0.5453 C   0  0  0  0  0  0  0  0  0  0  0  0
    6.1069    3.5830   -0.1148 C   0  0  1  0  0  0  0  0  0  0  0  0
    6.2615    3.5439   -1.6650 C   0  0  2  0  0  0  0  0  0  0  0  0
    4.9821    3.7072   -2.4627 C   0  0  0  0  0  0  0  0  0  0  0  0
    4.8871    3.4463   -3.6651 O   0  0  0  0  0  0  0  0  0  0  0  0
    4.0231    4.3378   -1.7398 O   0  0  0  0  0  0  0  0  0  0  0  0
    2.8399    4.7018   -2.4484 C   0  0  0  0  0  0  0  0  0  0  0  0
    4.9886    2.7464    0.5234 C   0  0  0  0  0  0  0  0  0  0  0  0
    4.6470    1.4742    0.0491 C   0  0  0  0  0  0  0  0  0  0  0  0
    3.6541    0.7055    0.6573 C   0  0  0  0  0  0  0  0  0  0  0  0
    2.9658    1.2086    1.7532 C   0  0  0  0  0  0  0  0  0  0  0  0
    3.2622    2.4800    2.2378 C   0  0  0  0  0  0  0  0  0  0  0  0
    4.2708    3.2424    1.6299 C   0  0  0  0  0  0  0  0  0  0  0  0
    1.5028    0.0494    2.6625 I   0  0  0  0  0  0  0  0  0  0  0  0
  1  2  1  0  0  0  0
  2  3  1  0  0  0  0
  3  4  1  0  0  0  0
  4  5  1  0  0  0  0
  5  6  1  0  0  0  0
  5  7  1  0  0  0  0
  6  8  1  0  0  0  0
  6 10  1  0  0  0  0
  7 12  1  0  0  0  0
  8  9  1  0  0  0  0
  9  7  1  0  0  0  0
 10 11  1  0  0  0  0
 11 17  1  1  0  0  0
 12 11  1  0  0  0  0
 12 13  1  6  0  0  0
 13 14  2  0  0  0  0
 13 15  1  0  0  0  0
 15 16  1  0  0  0  0
 17 18  1  0  0  0  0
 17 22  2  0  0  0  0
 18 19  2  0  0  0  0
 19 20  1  0  0  0  0
 20 21  2  0  0  0  0
 20 23  1  0  0  0  0
 21 22  1  0  0  0  0
M  END
