1362
 OpenBabel10141417503D

 34 34  0  0  1  0  0  0  0  0999 V2000
    1.8731    1.1633   -2.3148 I   0  0  0  0  0  0  0  0  0  0  0  0
    4.4850    0.5092    3.0847 I   0  0  0  0  0  0  0  0  0  0  0  0
    5.9724   -3.0459   -1.1097 I   0  0  0  0  0  0  0  0  0  0  0  0
    2.3573    4.7934   -1.1379 O   0  0  0  0  0  0  0  0  0  0  0  0
    4.4918    6.1101   -2.2892 O   0  0  0  0  0  0  0  0  0  0  0  0
    1.0138    1.3382    1.1854 O   0  0  0  0  0  0  0  0  0  0  0  0
    9.6317   -2.7391   -1.5178 O   0  0  0  0  0  0  0  0  0  0  0  0
   -1.3641   -1.4082   -2.0721 O   0  0  0  0  0  0  0  0  0  0  0  0
    7.4913    0.5234    1.4776 O   0  0  0  0  0  0  0  0  0  0  0  0
    2.9470   -3.3064   -0.7794 O   0  0  0  0  0  0  0  0  0  0  0  0
   10.4573   -1.3422   -3.8512 O   0  0  0  0  0  0  0  0  0  0  0  0
   -1.5837   -1.4943   -4.8896 O   0  0  0  0  0  0  0  0  0  0  0  0
    2.9837    2.3973    0.5827 N   0  0  0  0  0  0  0  0  0  0  0  0
    7.8834   -0.6677   -0.4215 N   0  0  0  0  0  0  0  0  0  0  0  0
    1.5372   -1.9256   -1.8719 N   0  0  0  0  0  0  0  0  0  0  0  0
    3.7996    3.6281    0.4793 C   0  0  0  0  0  0  0  0  0  0  0  0
    3.6116    1.1561    0.2118 C   0  0  0  0  0  0  0  0  0  0  0  0
    3.6912    4.3244   -0.8976 C   0  0  3  0  0  0  0  0  0  0  0  0
    3.0726    0.2782   -0.7384 C   0  0  0  0  0  0  0  0  0  0  0  0
    4.7963    0.7463    0.8468 C   0  0  0  0  0  0  0  0  0  0  0  0
    3.6167   -1.0195   -0.9085 C   0  0  0  0  0  0  0  0  0  0  0  0
    5.5812   -0.3074    0.3285 C   0  0  0  0  0  0  0  0  0  0  0  0
    4.9453   -1.2579   -0.4779 C   0  0  0  0  0  0  0  0  0  0  0  0
    4.6271    5.5350   -0.9868 C   0  0  0  0  0  0  0  0  0  0  0  0
    1.6696    2.3776    1.0697 C   0  0  0  0  0  0  0  0  0  0  0  0
    7.0587   -0.1346    0.5547 C   0  0  0  0  0  0  0  0  0  0  0  0
    2.7089   -2.1877   -1.1985 C   0  0  0  0  0  0  0  0  0  0  0  0
    9.3286   -0.6391   -0.2950 C   0  0  0  0  0  0  0  0  0  0  0  0
    0.5531   -2.9585   -2.1179 C   0  0  0  0  0  0  0  0  0  0  0  0
   10.0352   -1.3612   -1.4544 C   0  0  3  0  0  0  0  0  0  0  0  0
   -0.6978   -2.4297   -2.8324 C   0  0  3  0  0  0  0  0  0  0  0  0
    1.0940    3.6852    1.5698 C   0  0  0  0  0  0  0  0  0  0  0  0
    9.7188   -0.7115   -2.8062 C   0  0  0  0  0  0  0  0  0  0  0  0
   -0.3801   -1.8701   -4.2231 C   0  0  0  0  0  0  0  0  0  0  0  0
  1 19  1  0  0  0  0
  2 20  1  0  0  0  0
  3 23  1  0  0  0  0
  4 18  1  0  0  0  0
  5 24  1  0  0  0  0
  6 25  2  0  0  0  0
  7 30  1  0  0  0  0
  8 31  1  0  0  0  0
  9 26  2  0  0  0  0
 10 27  2  0  0  0  0
 11 33  1  0  0  0  0
 12 34  1  0  0  0  0
 13 16  1  0  0  0  0
 13 17  1  0  0  0  0
 13 25  1  0  0  0  0
 14 26  1  0  0  0  0
 14 28  1  0  0  0  0
 15 27  1  0  0  0  0
 15 29  1  0  0  0  0
 16 18  1  0  0  0  0
 17 19  2  0  0  0  0
 17 20  1  0  0  0  0
 18 24  1  0  0  0  0
 19 21  1  0  0  0  0
 20 22  2  0  0  0  0
 21 23  2  0  0  0  0
 21 27  1  0  0  0  0
 22 23  1  0  0  0  0
 22 26  1  0  0  0  0
 25 32  1  0  0  0  0
 28 30  1  0  0  0  0
 29 31  1  0  0  0  0
 30 33  1  0  0  0  0
 31 34  1  0  0  0  0
M  END
