
 OpenBabel10141417533D

 25 26  0  0  1  0  0  0  0  0999 V2000
    0.0363    2.6551    1.2948 O   0  0  0  0  0  0  0  0  0  0  0  0
   -1.0854    3.2725    0.8012 C   0  0  0  0  0  0  0  0  0  0  0  0
   -1.8869    3.8709    1.9498 C   0  0  3  0  0  0  0  0  0  0  0  0
   -1.3627    3.3912   -0.3841 O   0  0  0  0  0  0  0  0  0  0  0  0
   -1.5422    6.2882    1.2117 C   0  0  0  0  0  0  0  0  0  0  0  0
   -1.1407    7.6002    1.4689 C   0  0  0  0  0  0  0  0  0  0  0  0
   -1.4623    5.3082    2.2144 C   0  0  0  0  0  0  0  0  0  0  0  0
   -0.6563    7.9481    2.7279 C   0  0  0  0  0  0  0  0  0  0  0  0
   -3.3817    3.7589    1.6238 C   0  0  0  0  0  0  0  0  0  0  0  0
   -3.8205    2.4111    1.8047 O   0  0  0  0  0  0  0  0  0  0  0  0
    2.7209    2.6092    2.7662 C   0  0  0  0  0  0  0  0  0  0  0  0
    2.6123    3.9816    2.0967 C   0  0  0  0  0  0  0  0  0  0  0  0
    1.7694    3.4080   -0.2279 C   0  0  0  0  0  0  0  0  0  0  0  0
    1.8651    1.1089    0.9343 C   0  0  0  0  0  0  0  0  0  0  0  0
    0.9822    2.1935    0.2946 C   0  0  1  0  0  0  0  0  0  0  0  0
    3.0024    3.7555    0.6231 C   0  0  2  0  0  0  0  0  0  0  0  0
    3.1232    1.6440    1.6401 C   0  0  1  0  0  0  0  0  0  0  0  0
    5.2342    0.6900   -0.5603 C   0  0  0  0  0  0  0  0  0  0  0  0
    4.2934    1.8889   -0.7064 C   0  0  0  0  0  0  0  0  0  0  0  0
    4.8701    2.9086   -1.6960 C   0  0  0  0  0  0  0  0  0  0  0  0
    3.9697    2.5480    0.6951 N   0  3  1  0  0  0  0  0  0  0  0  0
    5.2979    2.9453    1.3639 C   0  0  0  0  0  0  0  0  0  0  0  0
   -0.9752    5.6734    3.4777 C   0  0  0  0  0  0  0  0  0  0  0  0
   -0.5734    6.9859    3.7318 C   0  0  0  0  0  0  0  0  0  0  0  0
    2.1879   -0.2498   -3.0778 Br  0  5  0  0  0  0  0  0  0  0  0  0
  1  2  1  0  0  0  0
  2  3  1  0  0  0  0
  2  4  2  0  0  0  0
  3  7  1  0  0  0  0
  3  9  1  0  0  0  0
  5  7  2  0  0  0  0
  6  5  1  0  0  0  0
  6  8  2  0  0  0  0
  7 23  1  0  0  0  0
  9 10  1  0  0  0  0
 11 12  1  0  0  0  0
 13 16  1  0  0  0  0
 14 17  1  0  0  0  0
 15 13  1  0  0  0  0
 15 14  1  0  0  0  0
 15  1  1  1  0  0  0
 16 12  1  1  0  0  0
 16 21  1  0  0  0  0
 17 11  1  1  0  0  0
 19 18  1  0  0  0  0
 19 20  1  0  0  0  0
 21 17  1  0  0  0  0
 21 22  1  1  0  0  0
 21 19  1  0  0  0  0
 23 24  2  0  0  0  0
 24  8  1  0  0  0  0
M  CHG  2  21   1  25  -1
M  END
