1029
 OpenBabel10141417483D

 32 36  0  0  0  0  0  0  0  0999 V2000
    0.9037    1.6991    0.0008 O   0  0  0  0  0  0  0  0  0  0  0  0
    4.3820    1.3364   -0.3157 N   0  0  0  0  0  0  0  0  0  0  0  0
    2.5166    0.0336   -0.2135 N   0  0  0  0  0  0  0  0  0  0  0  0
   -2.0852   -2.0267    6.9650 N   0  0  0  0  0  0  0  0  0  0  0  0
   -0.2654   -1.2174    5.9461 N   0  0  0  0  0  0  0  0  0  0  0  0
   -0.9449   -2.6566    7.2878 N   0  0  0  0  0  0  0  0  0  0  0  0
    0.1550   -2.2336    6.6730 N   0  0  0  0  0  0  0  0  0  0  0  0
    3.2155    2.2333   -0.4265 C   0  0  0  0  0  0  0  0  0  0  0  0
    3.0931    2.8332   -1.8180 C   0  0  0  0  0  0  0  0  0  0  0  0
    3.2824    3.4210    0.5296 C   0  0  0  0  0  0  0  0  0  0  0  0
    2.2115    4.0521   -1.5809 C   0  0  0  0  0  0  0  0  0  0  0  0
    2.6875    4.6071   -0.2430 C   0  0  0  0  0  0  0  0  0  0  0  0
    2.0175    1.3221   -0.1853 C   0  0  0  0  0  0  0  0  0  0  0  0
    3.8596    0.1357   -0.1997 C   0  0  0  0  0  0  0  0  0  0  0  0
    4.7953   -1.0396    0.0340 C   0  0  0  0  0  0  0  0  0  0  0  0
    1.6479   -1.1718   -0.0009 C   0  0  0  0  0  0  0  0  0  0  0  0
    5.1796   -1.2691    1.5095 C   0  0  0  0  0  0  0  0  0  0  0  0
    0.4876   -1.0334    0.9990 C   0  0  0  0  0  0  0  0  0  0  0  0
    4.0312   -1.5019    2.4765 C   0  0  0  0  0  0  0  0  0  0  0  0
   -0.7543   -0.5480    0.6285 C   0  0  0  0  0  0  0  0  0  0  0  0
    0.6494   -1.2290    2.3641 C   0  0  0  0  0  0  0  0  0  0  0  0
    3.2664   -0.2092    2.7084 C   0  0  0  0  0  0  0  0  0  0  0  0
   -1.6975   -0.1497    1.6061 C   0  0  0  0  0  0  0  0  0  0  0  0
   -0.1419   -0.5536    3.2919 C   0  0  0  0  0  0  0  0  0  0  0  0
   -1.4095   -0.1154    2.9873 C   0  0  0  0  0  0  0  0  0  0  0  0
   -2.3778    0.3467    4.0353 C   0  0  0  0  0  0  0  0  0  0  0  0
   -2.4793   -0.1275    5.3878 C   0  0  0  0  0  0  0  0  0  0  0  0
   -3.3428    1.3073    3.6269 C   0  0  0  0  0  0  0  0  0  0  0  0
   -3.5196    0.3763    6.2128 C   0  0  0  0  0  0  0  0  0  0  0  0
   -4.3599    1.7742    4.4617 C   0  0  0  0  0  0  0  0  0  0  0  0
   -1.6325   -1.1457    6.0451 C   0  0  0  0  0  0  0  0  0  0  0  0
   -4.4491    1.3075    5.7585 C   0  0  0  0  0  0  0  0  0  0  0  0
  1 13  2  0  0  0  0
  2  8  1  0  0  0  0
  2 14  2  0  0  0  0
  3 13  1  0  0  0  0
  3 14  1  0  0  0  0
  3 16  1  0  0  0  0
  4  6  1  0  0  0  0
  4 31  2  0  0  0  0
  5  7  2  0  0  0  0
  5 31  1  0  0  0  0
  6  7  1  0  0  0  0
  8  9  1  0  0  0  0
  8 10  1  0  0  0  0
  8 13  1  0  0  0  0
  9 11  1  0  0  0  0
 10 12  1  0  0  0  0
 11 12  1  0  0  0  0
 14 15  1  0  0  0  0
 15 17  1  0  0  0  0
 16 18  1  0  0  0  0
 17 19  1  0  0  0  0
 18 20  2  0  0  0  0
 18 21  1  0  0  0  0
 19 22  1  0  0  0  0
 20 23  1  0  0  0  0
 21 24  2  0  0  0  0
 23 25  2  0  0  0  0
 24 25  1  0  0  0  0
 25 26  1  0  0  0  0
 26 27  1  0  0  0  0
 26 28  2  0  0  0  0
 27 29  2  0  0  0  0
 27 31  1  0  0  0  0
 28 30  1  0  0  0  0
 29 32  1  0  0  0  0
 30 32  2  0  0  0  0
M  END
