762
 OpenBabel10141417483D

 43 49  0  0  1  0  0  0  0  0999 V2000
    1.9993    0.9411    0.3380 O   0  0  0  0  0  0  0  0  0  0  0  0
   13.4427   -3.1069   -1.9991 O   0  0  0  0  0  0  0  0  0  0  0  0
    1.7982    2.5044    2.0372 O   0  0  0  0  0  0  0  0  0  0  0  0
   12.7181   -1.1668    1.0271 O   0  0  0  0  0  0  0  0  0  0  0  0
    9.6535   -4.9846   -2.3715 O   0  0  0  0  0  0  0  0  0  0  0  0
   14.5601   -1.4352   -0.9781 O   0  0  0  0  0  0  0  0  0  0  0  0
   -3.4592    1.0103    0.3230 N   0  0  0  0  0  0  0  0  0  0  0  0
    0.0321    2.1410    0.5904 N   0  0  0  0  0  0  0  0  0  0  0  0
    8.7569   -3.5563   -0.8100 N   0  0  0  0  0  0  0  0  0  0  0  0
    7.2532   -0.7587    0.7884 N   0  0  0  0  0  0  0  0  0  0  0  0
   -2.8343    2.2597   -0.1900 C   0  0  3  0  0  0  0  0  0  0  0  0
   -1.6918    1.9973   -1.1975 C   0  0  0  0  0  0  0  0  0  0  0  0
   -2.2163    3.1871    0.8876 C   0  0  0  0  0  0  0  0  0  0  0  0
   -4.0668    0.1611   -0.7265 C   0  0  0  0  0  0  0  0  0  0  0  0
   -4.4766    1.2119    1.3746 C   0  0  0  0  0  0  0  0  0  0  0  0
   -0.4672    1.3643   -0.5458 C   0  0  0  0  0  0  0  0  0  0  0  0
   -0.9508    2.6301    1.5399 C   0  0  0  0  0  0  0  0  0  0  0  0
   -5.3565    0.7187   -1.3406 C   0  0  0  0  0  0  0  0  0  0  0  0
   -5.7844    1.8436    0.8853 C   0  0  0  0  0  0  0  0  0  0  0  0
   -6.3952    1.0761   -0.2829 C   0  0  0  0  0  0  0  0  0  0  0  0
    1.3308    1.9326    1.0683 C   0  0  0  0  0  0  0  0  0  0  0  0
    8.8916   -2.4504    0.0059 C   0  0  0  0  0  0  0  0  0  0  0  0
    6.6307   -2.9023   -0.1614 C   0  0  0  0  0  0  0  0  0  0  0  0
    7.3647   -4.0138   -0.8569 C   0  0  0  0  0  0  0  0  0  0  0  0
   11.2754   -2.5993   -0.2698 C   0  0  0  0  0  0  0  0  0  0  0  0
   12.6791   -2.3539    0.2366 C   0  0  2  0  0  0  0  0  0  0  0  0
    7.5484   -1.9758    0.3271 C   0  0  0  0  0  0  0  0  0  0  0  0
   11.1218   -3.4744   -1.2831 C   0  0  0  0  0  0  0  0  0  0  0  0
    5.2694   -2.6357   -0.0730 C   0  0  0  0  0  0  0  0  0  0  0  0
   10.1005   -1.9704    0.3217 C   0  0  0  0  0  0  0  0  0  0  0  0
    9.7808   -4.0741   -1.5606 C   0  0  0  0  0  0  0  0  0  0  0  0
    4.9116   -1.3231    0.3536 C   0  0  0  0  0  0  0  0  0  0  0  0
   13.1238   -3.5500    1.1203 C   0  0  0  0  0  0  0  0  0  0  0  0
   12.2689   -3.9517   -2.1024 C   0  0  0  0  0  0  0  0  0  0  0  0
    5.9544   -0.4246    0.7510 C   0  0  0  0  0  0  0  0  0  0  0  0
   13.6275   -2.2390   -0.9752 C   0  0  0  0  0  0  0  0  0  0  0  0
    4.2648   -3.6946   -0.4706 C   0  0  0  0  0  0  0  0  0  0  0  0
    3.3178    0.5145    0.6079 C   0  0  0  0  0  0  0  0  0  0  0  0
    3.5893   -0.8270    0.3245 C   0  0  0  0  0  0  0  0  0  0  0  0
    5.6361    0.8911    1.0604 C   0  0  0  0  0  0  0  0  0  0  0  0
    4.3318    1.3808    0.9747 C   0  0  0  0  0  0  0  0  0  0  0  0
   14.5333   -3.4360    1.6907 C   0  0  0  0  0  0  0  0  0  0  0  0
    3.8578   -4.5912    0.6950 C   0  0  0  0  0  0  0  0  0  0  0  0
  1 21  1  0  0  0  0
  1 38  1  0  0  0  0
  2 34  1  0  0  0  0
  2 36  1  0  0  0  0
  3 21  2  0  0  0  0
  5 31  2  0  0  0  0
  6 36  2  0  0  0  0
  7 11  1  0  0  0  0
  7 14  1  0  0  0  0
  7 15  1  0  0  0  0
  8 16  1  0  0  0  0
  8 17  1  0  0  0  0
  8 21  1  0  0  0  0
  9 22  1  0  0  0  0
  9 24  1  0  0  0  0
  9 31  1  0  0  0  0
 10 27  2  0  0  0  0
 10 35  1  0  0  0  0
 11 12  1  0  0  0  0
 11 13  1  0  0  0  0
 12 16  1  0  0  0  0
 13 17  1  0  0  0  0
 14 18  1  0  0  0  0
 15 19  1  0  0  0  0
 18 20  1  0  0  0  0
 19 20  1  0  0  0  0
 22 27  1  0  0  0  0
 22 30  2  0  0  0  0
 23 24  1  0  0  0  0
 23 27  1  0  0  0  0
 23 29  2  0  0  0  0
 25 26  1  0  0  0  0
 25 28  2  0  0  0  0
 25 30  1  0  0  0  0
 26  4  1  1  0  0  0
 26 33  1  0  0  0  0
 26 36  1  0  0  0  0
 28 31  1  0  0  0  0
 28 34  1  0  0  0  0
 29 32  1  0  0  0  0
 29 37  1  0  0  0  0
 32 35  2  0  0  0  0
 32 39  1  0  0  0  0
 33 42  1  0  0  0  0
 35 40  1  0  0  0  0
 37 43  1  0  0  0  0
 38 39  2  0  0  0  0
 38 41  1  0  0  0  0
 40 41  2  0  0  0  0
M  END
