1247
 OpenBabel10141417493D

 17 18  0  0  0  0  0  0  0  0999 V2000
   -1.2385    0.2196    3.8794 O   0  0  0  0  0  0  0  0  0  0  0  0
   -1.9047   -4.1662    2.8926 O   0  0  0  0  0  0  0  0  0  0  0  0
   -2.6384   -3.6782    0.2131 N   0  0  0  0  0  0  0  0  0  0  0  0
   -2.3161   -2.6797    1.1734 N   0  0  0  0  0  0  0  0  0  0  0  0
   -1.6006   -0.5983    2.8239 N   0  0  0  0  0  0  0  0  0  0  0  0
   -4.0750   -3.9959    0.2394 C   0  0  0  0  0  0  0  0  0  0  0  0
   -4.4308   -5.0824   -0.7525 C   0  0  0  0  0  0  0  0  0  0  0  0
   -4.3854   -6.4332   -0.3746 C   0  0  0  0  0  0  0  0  0  0  0  0
   -4.8053   -4.7651   -2.0673 C   0  0  0  0  0  0  0  0  0  0  0  0
   -1.5837   -1.8553    3.3054 C   0  0  0  0  0  0  0  0  0  0  0  0
   -1.9355   -3.0078    2.4716 C   0  0  0  0  0  0  0  0  0  0  0  0
   -4.7190   -7.4399   -1.2849 C   0  0  0  0  0  0  0  0  0  0  0  0
   -5.1343   -5.7740   -2.9779 C   0  0  0  0  0  0  0  0  0  0  0  0
   -1.2033   -1.8579    4.6743 C   0  0  0  0  0  0  0  0  0  0  0  0
   -1.0072   -0.5356    4.9857 C   0  0  0  0  0  0  0  0  0  0  0  0
   -5.0923   -7.1105   -2.5862 C   0  0  0  0  0  0  0  0  0  0  0  0
   -0.6155    0.1887    6.2100 C   0  0  0  0  0  0  0  0  0  0  0  0
  1  5  1  0  0  0  0
  1 15  1  0  0  0  0
  2 11  2  0  0  0  0
  3  4  1  0  0  0  0
  3  6  1  0  0  0  0
  4 11  1  0  0  0  0
  5 10  2  0  0  0  0
  6  7  1  0  0  0  0
  7  8  2  0  0  0  0
  7  9  1  0  0  0  0
  8 12  1  0  0  0  0
  9 13  2  0  0  0  0
 10 11  1  0  0  0  0
 10 14  1  0  0  0  0
 12 16  2  0  0  0  0
 13 16  1  0  0  0  0
 14 15  2  0  0  0  0
 15 17  1  0  0  0  0
M  END
