221
 OpenBabel10141417513D

 17 17  0  0  1  0  0  0  0  0999 V2000
    0.5534   -1.3061   -0.9247 O   0  0  0  0  0  0  0  0  0  0  0  0
   -0.9839    2.2886    2.2256 O   0  0  0  0  0  0  0  0  0  0  0  0
    1.1713    3.0257    3.6954 O   0  0  0  0  0  0  0  0  0  0  0  0
    3.0073   -1.7317   -2.4181 N   0  0  0  0  0  0  0  0  0  0  0  0
    2.8370   -0.5522   -1.5241 C   0  0  3  0  0  0  0  0  0  0  0  0
    1.8150   -0.9101   -0.3731 C   0  0  3  0  0  0  0  0  0  0  0  0
    2.4835    0.7511   -2.2844 C   0  0  0  0  0  0  0  0  0  0  0  0
    3.9553   -1.5713   -3.5354 C   0  0  0  0  0  0  0  0  0  0  0  0
    1.6202    0.1612    0.6935 C   0  0  0  0  0  0  0  0  0  0  0  0
    1.2652    0.7073   -3.1975 C   0  0  0  0  0  0  0  0  0  0  0  0
    5.3831   -1.2299   -3.1075 C   0  0  0  0  0  0  0  0  0  0  0  0
    3.9616   -2.8742   -4.3432 C   0  0  0  0  0  0  0  0  0  0  0  0
    0.3640    0.7571    0.9332 C   0  0  0  0  0  0  0  0  0  0  0  0
    2.7042    0.5425    1.5067 C   0  0  0  0  0  0  0  0  0  0  0  0
    0.2252    1.7076    1.9439 C   0  0  0  0  0  0  0  0  0  0  0  0
    2.5606    1.5129    2.5044 C   0  0  0  0  0  0  0  0  0  0  0  0
    1.3146    2.0888    2.7120 C   0  0  0  0  0  0  0  0  0  0  0  0
  1  6  1  0  0  0  0
  2 15  1  0  0  0  0
  3 17  1  0  0  0  0
  4  5  1  0  0  0  0
  4  8  1  0  0  0  0
  5  6  1  0  0  0  0
  5  7  1  0  0  0  0
  6  9  1  0  0  0  0
  7 10  1  0  0  0  0
  8 11  1  0  0  0  0
  8 12  1  0  0  0  0
  9 13  2  0  0  0  0
  9 14  1  0  0  0  0
 13 15  1  0  0  0  0
 14 16  2  0  0  0  0
 15 17  2  0  0  0  0
 16 17  1  0  0  0  0
M  END
