753
 OpenBabel10141417493D

 10  9  0  0  1  0  0  0  0  0999 V2000
    1.9579   -0.2643   -1.1781 Cl  0  0  0  0  0  0  0  0  0  0  0  0
    4.6002   -1.1386   -1.5149 F   0  0  0  0  0  0  0  0  0  0  0  0
    5.1938   -1.3125    0.5660 F   0  0  0  0  0  0  0  0  0  0  0  0
    4.2081   -2.9845   -0.4393 F   0  0  0  0  0  0  0  0  0  0  0  0
    3.5242   -3.0600    1.9152 F   0  0  0  0  0  0  0  0  0  0  0  0
    2.4250   -1.3956    2.7759 F   0  0  0  0  0  0  0  0  0  0  0  0
    1.9411   -2.0472    0.6867 O   0  0  0  0  0  0  0  0  0  0  0  0
    2.8540   -1.0790    0.1555 C   0  0  3  0  0  0  0  0  0  0  0  0
    4.2151   -1.6365   -0.3164 C   0  0  0  0  0  0  0  0  0  0  0  0
    2.3167   -2.4777    1.9767 C   0  0  0  0  0  0  0  0  0  0  0  0
  1  8  1  0  0  0  0
  2  9  1  0  0  0  0
  3  9  1  0  0  0  0
  4  9  1  0  0  0  0
  5 10  1  0  0  0  0
  6 10  1  0  0  0  0
  7  8  1  0  0  0  0
  7 10  1  0  0  0  0
  8  9  1  0  0  0  0
M  END
