
 OpenBabel10141419223D

 10  9  0  0  0  0  0  0  0  0999 V2000
    3.1476   -0.0787   -1.4965 C   0  0  0  0  0  0  0  0  0  0  0  0
    2.4258    0.1164   -0.1569 C   0  0  3  0  0  0  0  0  0  0  0  0
    2.8313   -1.0245    0.8071 C   0  0  0  0  0  0  0  0  0  0  0  0
    2.1557   -0.9331    2.1824 C   0  0  0  0  0  0  0  0  0  0  0  0
    2.5499   -2.0676    3.0873 C   0  0  0  0  0  0  0  0  0  0  0  0
    1.7552   -3.0038    3.6462 C   0  0  0  0  0  0  0  0  0  0  0  0
    0.2782   -3.1270    3.4212 C   0  0  0  0  0  0  0  0  0  0  0  0
    2.3213   -4.0294    4.5926 C   0  0  0  0  0  0  0  0  0  0  0  0
    2.7360    1.4234    0.4401 N   0  0  0  0  0  0  0  0  0  0  0  0
    2.2317    2.5496   -0.3347 C   0  0  0  0  0  0  0  0  0  0  0  0
  1  2  1  0  0  0  0
  2  3  1  0  0  0  0
  2  9  1  0  0  0  0
  3  4  1  0  0  0  0
  4  5  1  0  0  0  0
  5  6  2  0  0  0  0
  6  7  1  0  0  0  0
  6  8  1  0  0  0  0
  9 10  1  0  0  0  0
M  END
