1064
 OpenBabel10141417493D

 15 15  0  0  1  0  0  0  0  0999 V2000
    0.9653    2.0315   -1.8282 O   0  0  0  0  0  0  0  0  0  0  0  0
    0.9584    7.0135   -1.3855 O   0  0  0  0  0  0  0  0  0  0  0  0
    1.6900    7.5920    1.1604 O   0  0  0  0  0  0  0  0  0  0  0  0
    3.7296    1.7645   -0.9037 N   0  0  0  0  0  0  0  0  0  0  0  0
    1.2686    2.1482   -0.4345 C   0  0  3  0  0  0  0  0  0  0  0  0
    2.5487    1.3191   -0.1289 C   0  0  0  0  0  0  0  0  0  0  0  0
    4.9391    0.9785   -0.5872 C   0  0  0  0  0  0  0  0  0  0  0  0
    1.3632    3.6097   -0.0204 C   0  0  0  0  0  0  0  0  0  0  0  0
    6.1108    1.4834   -1.4373 C   0  0  0  0  0  0  0  0  0  0  0  0
    5.3327    1.0385    0.8932 C   0  0  0  0  0  0  0  0  0  0  0  0
    1.0877    4.6494   -0.9317 C   0  0  0  0  0  0  0  0  0  0  0  0
    1.7083    3.9506    1.3006 C   0  0  0  0  0  0  0  0  0  0  0  0
    1.2030    5.9757   -0.5249 C   0  0  0  0  0  0  0  0  0  0  0  0
    1.8216    5.2851    1.7004 C   0  0  0  0  0  0  0  0  0  0  0  0
    1.5726    6.2879    0.7737 C   0  0  0  0  0  0  0  0  0  0  0  0
  1  5  1  0  0  0  0
  2 13  1  0  0  0  0
  3 15  1  0  0  0  0
  4  6  1  0  0  0  0
  4  7  1  0  0  0  0
  5  6  1  0  0  0  0
  5  8  1  0  0  0  0
  7  9  1  0  0  0  0
  7 10  1  0  0  0  0
  8 11  2  0  0  0  0
  8 12  1  0  0  0  0
 11 13  1  0  0  0  0
 12 14  2  0  0  0  0
 13 15  2  0  0  0  0
 14 15  1  0  0  0  0
M  END
