1020
 OpenBabel10141417503D

 13 14  0  0  1  0  0  0  0  0999 V2000
    1.3550    1.3491   -0.9524 O   0  0  0  0  0  0  0  0  0  0  0  0
   -1.6583   -0.3772   -0.4116 O   0  0  0  0  0  0  0  0  0  0  0  0
    0.2277    0.0587    1.4649 O   0  0  0  0  0  0  0  0  0  0  0  0
   -1.3139    2.9999   -1.6493 O   0  0  0  0  0  0  0  0  0  0  0  0
    0.3476    0.0801    3.6631 O   0  5  0  0  0  0  0  0  0  0  0  0
    1.6323   -1.3504    2.5384 O   0  0  0  0  0  0  0  0  0  0  0  0
    0.7825   -0.4638    2.6545 N   0  3  0  0  0  0  0  0  0  0  0  0
   -0.2950   -0.3799   -0.8478 C   0  0  1  0  0  0  0  0  0  0  0  0
    0.0432    0.9887   -1.4063 C   0  0  1  0  0  0  0  0  0  0  0  0
    0.7108   -0.5767    0.2775 C   0  0  1  0  0  0  0  0  0  0  0  0
   -1.0420    1.8759   -0.8266 C   0  0  2  0  0  0  0  0  0  0  0  0
    1.9020    0.1997   -0.2694 C   0  0  0  0  0  0  0  0  0  0  0  0
   -2.2113    0.9071   -0.7592 C   0  0  0  0  0  0  0  0  0  0  0  0
  1 12  1  0  0  0  0
  2 13  1  0  0  0  0
  3  7  1  0  0  0  0
  5  7  1  0  0  0  0
  6  7  2  0  0  0  0
  8  2  1  1  0  0  0
  8  9  1  0  0  0  0
  8 10  1  0  0  0  0
  9  1  1  1  0  0  0
  9 11  1  0  0  0  0
 10  3  1  1  0  0  0
 10 12  1  0  0  0  0
 11  4  1  6  0  0  0
 11 13  1  0  0  0  0
M  CHG  2   5  -1   7   1
M  END
