
 OpenBabel10141417493D

 22 22  0  0  0  0  0  0  0  0999 V2000
   -2.7764   -1.6345    3.4519 C   0  0  0  0  0  0  0  0  0  0  0  0
   -4.0736   -1.9550    4.2447 C   0  0  0  0  0  0  0  0  0  0  0  0
   -3.1154   -1.0304    2.0508 C   0  0  0  0  0  0  0  0  0  0  0  0
   -4.3486   -0.5152    1.7883 C   0  0  0  0  0  0  0  0  0  0  0  0
   -5.4588   -0.4663    2.8211 C   0  0  0  0  0  0  0  0  0  0  0  0
   -5.0438   -0.7904    4.2441 C   0  0  0  0  0  0  0  0  0  0  0  0
    3.1373   -0.7126   -4.4663 C   0  0  0  0  0  0  0  0  0  0  0  0
    2.6871    0.2236   -3.6075 C   0  0  0  0  0  0  0  0  0  0  0  0
    1.5640    0.1186   -2.6930 C   0  0  0  0  0  0  0  0  0  0  0  0
    0.2787   -0.0518   -3.0417 C   0  0  0  0  0  0  0  0  0  0  0  0
   -0.7830   -0.1929   -2.0689 C   0  0  0  0  0  0  0  0  0  0  0  0
   -0.8748   -1.1356   -1.1074 C   0  0  0  0  0  0  0  0  0  0  0  0
   -1.9907   -1.0020    1.1012 C   0  0  0  0  0  0  0  0  0  0  0  0
    3.4272    1.5301   -3.4517 C   0  0  0  0  0  0  0  0  0  0  0  0
    0.0826   -2.2717   -0.8859 C   0  0  0  0  0  0  0  0  0  0  0  0
   -1.9134   -0.6464    4.2750 C   0  0  0  0  0  0  0  0  0  0  0  0
   -2.0050   -2.9740    3.3585 C   0  0  0  0  0  0  0  0  0  0  0  0
   -2.0329   -1.1437   -0.2337 C   0  0  0  0  0  0  0  0  0  0  0  0
   -4.8258    0.0728    0.4792 C   0  0  0  0  0  0  0  0  0  0  0  0
    2.6973   -2.0878   -4.7729 C   0  0  0  0  0  0  0  0  0  0  0  0
    3.2787   -2.7658   -5.6223 O   0  0  0  0  0  0  0  0  0  0  0  0
    1.6651   -2.5712   -4.0829 O   0  0  0  0  0  0  0  0  0  0  0  0
  1 16  1  0  0  0  0
  1 17  1  0  0  0  0
  1  2  1  0  0  0  0
  1  3  1  0  0  0  0
  2  6  1  0  0  0  0
  3 13  1  0  0  0  0
  4  3  2  0  0  0  0
  5  4  1  0  0  0  0
  6  5  1  0  0  0  0
  7 20  1  0  0  0  0
  8  7  2  0  0  0  0
  9  8  1  0  0  0  0
 10  9  2  0  0  0  0
 11 10  1  0  0  0  0
 12 11  2  0  0  0  0
 13 18  2  0  0  0  0
 14  8  1  0  0  0  0
 15 12  1  0  0  0  0
 18 12  1  0  0  0  0
 19  4  1  0  0  0  0
 20 21  2  0  0  0  0
 20 22  1  0  0  0  0
M  END
