3781
 OpenBabel10141417493D

 20 22  0  0  1  0  0  0  0  0999 V2000
    1.8736   -5.2192    0.8407 S   0  0  0  0  0  0  0  0  0  0  0  0
    1.5077   -3.0231   -1.3787 N   0  0  0  0  0  0  0  0  0  0  0  0
   -0.6059    0.1832   -0.0760 N   0  0  0  0  0  0  0  0  0  0  0  0
    0.1558   -4.4585   -2.7626 N   0  0  0  0  0  0  0  0  0  0  0  0
    0.6509   -0.5590   -0.4865 C   0  0  3  0  0  0  0  0  0  0  0  0
    0.3884   -2.0836   -0.9271 C   0  0  0  0  0  0  0  0  0  0  0  0
    2.6978   -2.9902   -0.6129 C   0  0  0  0  0  0  0  0  0  0  0  0
    1.7383   -0.3848    0.5777 C   0  0  0  0  0  0  0  0  0  0  0  0
    0.8801   -4.3022   -1.6275 C   0  0  0  0  0  0  0  0  0  0  0  0
    2.9292   -3.8346    0.4929 C   0  0  0  0  0  0  0  0  0  0  0  0
    1.0638   -5.3938   -0.7355 C   0  0  0  0  0  0  0  0  0  0  0  0
   -1.3729   -0.4817    0.9789 C   0  0  0  0  0  0  0  0  0  0  0  0
   -0.3854    1.5829    0.3374 C   0  0  0  0  0  0  0  0  0  0  0  0
    3.7166   -2.1018   -0.9747 C   0  0  0  0  0  0  0  0  0  0  0  0
    4.0177   -3.6000    1.3391 C   0  0  0  0  0  0  0  0  0  0  0  0
    0.5319   -6.6411   -1.0648 C   0  0  0  0  0  0  0  0  0  0  0  0
    4.7910   -1.8510   -0.1178 C   0  0  0  0  0  0  0  0  0  0  0  0
    4.9117   -2.5698    1.0733 C   0  0  0  0  0  0  0  0  0  0  0  0
   -0.3416   -5.6825   -3.0499 C   0  0  0  0  0  0  0  0  0  0  0  0
   -0.1759   -6.8070   -2.2397 C   0  0  0  0  0  0  0  0  0  0  0  0
  1 10  1  0  0  0  0
  1 11  1  0  0  0  0
  2  6  1  0  0  0  0
  2  7  1  0  0  0  0
  2  9  1  0  0  0  0
  3  5  1  0  0  0  0
  3 12  1  0  0  0  0
  3 13  1  0  0  0  0
  4  9  1  0  0  0  0
  4 19  2  0  0  0  0
  5  6  1  0  0  0  0
  5  8  1  0  0  0  0
  7 10  1  0  0  0  0
  7 14  2  0  0  0  0
  9 11  2  0  0  0  0
 10 15  2  0  0  0  0
 11 16  1  0  0  0  0
 14 17  1  0  0  0  0
 15 18  1  0  0  0  0
 16 20  2  0  0  0  0
 17 18  2  0  0  0  0
 19 20  1  0  0  0  0
M  END
