
 OpenBabel10141417503D

123135  0  0  1  0  0  0  0  0999 V2000
  -24.6141   17.9477   10.8540 C   0  0  0  0  0  0  0  0  0  0  0  0
  -25.5001   18.3475   11.8638 O   0  0  0  0  0  0  0  0  0  0  0  0
  -24.9366   19.3926   12.6719 C   0  0  1  0  0  0  0  0  0  0  0  0
  -23.6483   18.8367   13.1459 C   0  0  0  0  0  0  0  0  0  0  0  0
  -22.5033   19.0607   12.2309 C   0  0  1  0  0  0  0  0  0  0  0  0
  -22.5990   20.2655   11.4087 O   0  0  0  0  0  0  0  0  0  0  0  0
  -23.6846   21.1793   11.2017 C   0  0  1  0  0  0  0  0  0  0  0  0
  -24.3491   21.5632    9.8068 C   0  0  0  0  0  0  0  0  0  0  0  0
  -24.8340   20.8473   12.1348 C   0  0  2  0  0  0  0  0  0  0  0  0
  -24.6470   21.7718   13.2085 O   0  0  0  0  0  0  0  0  0  0  0  0
  -21.2606   18.9767   12.9240 O   0  0  0  0  0  0  0  0  0  0  0  0
  -20.6958   17.8852   13.6618 C   0  0  1  0  0  0  0  0  0  0  0  0
  -21.5106   17.4845   14.8440 C   0  0  2  0  0  0  0  0  0  0  0  0
  -20.6185   16.7017   15.7939 C   0  0  0  0  0  0  0  0  0  0  0  0
  -22.6230   16.7196   14.4178 O   0  0  0  0  0  0  0  0  0  0  0  0
  -22.3091   15.5987   13.6182 C   0  0  2  0  0  0  0  0  0  0  0  0
  -21.0077   15.7048   12.9440 C   0  0  0  0  0  0  0  0  0  0  0  0
  -19.9300   16.6324   13.2005 C   0  0  2  0  0  0  0  0  0  0  0  0
  -18.6179   16.3058   13.6711 O   0  0  0  0  0  0  0  0  0  0  0  0
  -18.4095   15.1600   14.4411 C   0  0  0  0  0  0  0  0  0  0  0  0
  -23.2356   15.3610   12.5022 O   0  0  0  0  0  0  0  0  0  0  0  0
  -22.9692   14.1100   11.8045 C   0  0  1  0  0  0  0  0  0  0  0  0
  -24.1608   13.5125   10.8880 C   0  0  1  0  0  0  0  0  0  0  0  0
  -24.5607   12.2056   11.6478 C   0  0  0  0  0  0  0  0  0  0  0  0
  -25.4731   14.3442   10.5140 C   0  0  0  0  0  0  0  0  0  0  0  0
  -25.6157   15.2829    9.5289 C   0  0  0  0  0  0  0  0  0  0  0  0
  -26.7385   16.2477    9.2161 C   0  0  0  0  0  0  0  0  0  0  0  0
  -26.7790   17.5858    8.8198 C   0  0  0  0  0  0  0  0  0  0  0  0
  -28.1667   18.1787    8.5846 C   0  0  0  0  0  0  0  0  0  0  0  0
  -28.0357   19.4502    7.8998 O   0  0  0  0  0  0  0  0  0  0  0  0
  -26.6221   19.7256    7.6467 C   0  0  2  0  0  0  0  0  0  0  0  0
  -26.2630   19.3823    6.2149 C   0  0  2  0  0  0  0  0  0  0  0  0
  -27.0437   18.2707    5.7837 O   0  0  0  0  0  0  0  0  0  0  0  0
  -24.8116   19.0782    5.9564 C   0  0  0  0  0  0  0  0  0  0  0  0
  -24.4641   18.6462    4.5788 C   0  0  0  0  0  0  0  0  0  0  0  0
  -23.8174   19.0429    6.8554 C   0  0  0  0  0  0  0  0  0  0  0  0
  -23.9966   19.0265    8.3170 C   0  0  1  0  0  0  0  0  0  0  0  0
  -22.5233   20.0519    8.7941 C   0  0  0  0  0  0  0  0  0  0  0  0
  -22.1833   21.1094    8.4038 O   0  0  0  0  0  0  0  0  0  0  0  0
  -21.6797   19.3259    9.6354 O   0  0  0  0  0  0  0  0  0  0  0  0
  -20.2644   19.8387    9.9237 C   0  0  1  0  0  0  0  0  0  0  0  0
  -19.6432   18.5427    9.4931 C   0  0  0  0  0  0  0  0  0  0  0  0
  -19.7841   17.6441   10.6709 C   0  0  1  0  0  0  0  0  0  0  0  0
  -20.1338   16.0368   10.0893 C   0  0  0  0  0  0  0  0  0  0  0  0
  -20.4363   14.5721   10.6855 C   0  0  0  0  0  0  0  0  0  0  0  0
  -21.4672   13.8064   11.2310 C   0  0  0  0  0  0  0  0  0  0  0  0
  -21.0411   12.4006   11.7341 C   0  0  0  0  0  0  0  0  0  0  0  0
  -18.6803   18.0694   11.6097 O   0  0  0  0  0  0  0  0  0  0  0  0
  -18.6719   19.4404   12.2340 C   0  0  2  0  0  0  0  0  0  0  0  0
  -17.1990   19.8330   12.1697 C   0  0  0  0  0  0  0  0  0  0  0  0
  -16.2796   19.0815   13.1798 C   0  0  0  0  0  0  0  0  0  0  0  0
  -16.6176   19.2400   14.6705 C   0  0  2  0  0  0  0  0  0  0  0  0
  -15.8302   18.2133   15.5315 C   0  0  0  0  0  0  0  0  0  0  0  0
  -18.1222   19.1693   14.8682 C   0  0  2  0  0  0  0  0  0  0  0  0
  -18.8455   19.8197   13.7405 O   0  0  0  0  0  0  0  0  0  0  0  0
  -18.5951   19.6831   16.3405 C   0  0  0  0  0  0  0  0  0  0  0  0
  -18.4092   21.1841   16.4482 C   0  0  0  0  0  0  0  0  0  0  0  0
  -20.0431   19.4801   16.8417 C   0  0  0  0  0  0  0  0  0  0  0  0
  -19.6988   20.3602   11.3868 C   0  0  0  0  0  0  0  0  0  0  0  0
  -25.8220   18.9288    8.6726 C   0  0  2  0  0  0  0  0  0  0  0  0
  -26.3083   19.5903    9.9112 O   0  0  0  0  0  0  0  0  0  0  0  0
   -8.1350  -17.4060  -21.9742 C   0  0  0  0  0  0  0  0  0  0  0  0
   -8.3695  -18.7265  -22.7208 C   0  0  0  0  0  0  0  0  0  0  0  0
   -7.5783  -19.9138  -22.1187 C   0  0  1  0  0  0  0  0  0  0  0  0
   -8.0348  -20.1190  -20.6664 C   0  0  0  0  0  0  0  0  0  0  0  0
   -7.6786  -21.2406  -22.9837 C   0  0  1  0  0  0  0  0  0  0  0  0
   -7.2081  -20.9462  -24.3292 O   0  0  0  0  0  0  0  0  0  0  0  0
   -6.2379  -21.8133  -24.9335 C   0  0  2  0  0  0  0  0  0  0  0  0
   -6.6144  -23.2707  -24.6315 C   0  0  0  0  0  0  0  0  0  0  0  0
   -6.5606  -23.6038  -23.1630 C   0  0  0  0  0  0  0  0  0  0  0  0
   -7.0409  -22.4740  -22.2518 C   0  0  2  0  0  0  0  0  0  0  0  0
   -7.9793  -23.1312  -21.2107 C   0  0  0  0  0  0  0  0  0  0  0  0
   -6.2585  -21.6971  -26.4971 C   0  0  0  0  0  0  0  0  0  0  0  0
   -5.4908  -20.4923  -27.0452 C   0  0  2  0  0  0  0  0  0  0  0  0
   -4.1725  -20.2574  -26.3000 C   0  0  0  0  0  0  0  0  0  0  0  0
   -4.4472  -20.1909  -24.8062 C   0  0  1  0  0  0  0  0  0  0  0  0
   -3.2525  -19.7843  -23.8581 C   0  0  0  0  0  0  0  0  0  0  0  0
   -2.2201  -18.6682  -24.2308 C   0  0  0  0  0  0  0  0  0  0  0  0
   -0.8542  -18.7949  -24.3799 C   0  0  0  0  0  0  0  0  0  0  0  0
   -0.2608  -20.1154  -24.0043 C   0  0  0  0  0  0  0  0  0  0  0  0
    0.2248  -17.7243  -24.9431 C   0  0  1  0  0  0  0  0  0  0  0  0
    1.6843  -18.3777  -25.1230 O   0  0  0  0  0  0  0  0  0  0  0  0
    2.9774  -17.6138  -25.2659 C   0  0  1  0  0  0  0  0  0  0  0  0
    4.4497  -18.2555  -25.1399 C   0  0  0  0  0  0  0  0  0  0  0  0
    5.1580  -18.7395  -26.4901 C   0  0  2  0  0  0  0  0  0  0  0  0
    6.0884  -17.7937  -27.1153 O   0  0  0  0  0  0  0  0  0  0  0  0
    5.7809  -16.4105  -27.2694 C   0  0  0  0  0  0  0  0  0  0  0  0
    4.1383  -19.2362  -27.5192 C   0  0  1  0  0  0  0  0  0  0  0  0
    3.4345  -20.4302  -27.0325 O   0  0  0  0  0  0  0  0  0  0  0  0
    2.3420  -21.1208  -27.7200 C   0  0  1  0  0  0  0  0  0  0  0  0
    1.0151  -20.4067  -28.0630 C   0  0  0  0  0  0  0  0  0  0  0  0
    1.2442  -19.4683  -29.2593 C   0  0  2  0  0  0  0  0  0  0  0  0
    0.2120  -18.5717  -29.6563 O   0  0  0  0  0  0  0  0  0  0  0  0
    0.6211  -17.3427  -30.3790 C   0  0  0  0  0  0  0  0  0  0  0  0
    2.1827  -19.9766  -30.3461 C   0  0  1  0  0  0  0  0  0  0  0  0
    3.3041  -19.1197  -30.6245 O   0  0  0  0  0  0  0  0  0  0  0  0
    2.8507  -21.3199  -30.0897 C   0  0  2  0  0  0  0  0  0  0  0  0
    2.3545  -22.1342  -31.2776 C   0  0  0  0  0  0  0  0  0  0  0  0
    2.6607  -21.9615  -28.8401 O   0  0  0  0  0  0  0  0  0  0  0  0
    3.2460  -18.0087  -27.5962 C   0  0  2  0  0  0  0  0  0  0  0  0
    3.3155  -17.1600  -28.8817 C   0  0  0  0  0  0  0  0  0  0  0  0
    3.1742  -17.0360  -26.5420 O   0  0  0  0  0  0  0  0  0  0  0  0
   -0.4663  -16.9192  -26.2300 C   0  0  1  0  0  0  0  0  0  0  0  0
    0.6335  -16.7567  -27.1776 C   0  0  0  0  0  0  0  0  0  0  0  0
   -1.7100  -17.4547  -27.0985 C   0  0  0  0  0  0  0  0  0  0  0  0
   -1.9986  -17.3901  -28.4372 C   0  0  0  0  0  0  0  0  0  0  0  0
   -2.9789  -18.2463  -29.2004 C   0  0  0  0  0  0  0  0  0  0  0  0
   -2.8546  -18.7872  -30.4562 C   0  0  0  0  0  0  0  0  0  0  0  0
   -1.8403  -18.4661  -31.5144 C   0  0  0  0  0  0  0  0  0  0  0  0
   -1.2558  -19.6413  -32.0648 O   0  0  0  0  0  0  0  0  0  0  0  0
   -1.9759  -20.6799  -31.4030 C   0  0  2  0  0  0  0  0  0  0  0  0
   -1.9252  -21.8429  -32.3625 C   0  0  2  0  0  0  0  0  0  0  0  0
   -2.1659  -21.3917  -33.7020 O   0  0  0  0  0  0  0  0  0  0  0  0
   -2.9755  -22.8250  -32.0146 C   0  0  0  0  0  0  0  0  0  0  0  0
   -2.6941  -24.2125  -32.5052 C   0  0  0  0  0  0  0  0  0  0  0  0
   -4.0605  -22.4998  -31.2728 C   0  0  0  0  0  0  0  0  0  0  0  0
   -4.3578  -21.1195  -30.6279 C   0  0  1  0  0  0  0  0  0  0  0  0
   -4.4523  -21.4036  -29.0871 C   0  0  0  0  0  0  0  0  0  0  0  0
   -3.9641  -22.2714  -28.5566 O   0  0  0  0  0  0  0  0  0  0  0  0
   -5.3150  -20.4671  -28.4986 O   0  0  0  0  0  0  0  0  0  0  0  0
   -3.3862  -20.0512  -31.1154 C   0  0  2  0  0  0  0  0  0  0  0  0
   -3.9673  -19.5590  -32.3650 O   0  0  0  0  0  0  0  0  0  0  0  0
   -4.9358  -21.5006  -24.4111 O   0  0  0  0  0  0  0  0  0  0  0  0
  1  2  1  0  0  0  0
  3  4  1  0  0  0  0
  3  9  1  0  0  0  0
  3  2  1  6  0  0  0
  4  5  1  0  0  0  0
  5  6  1  0  0  0  0
  5 11  1  1  0  0  0
  6  7  1  0  0  0  0
  7  8  1  6  0  0  0
  7  9  1  0  0  0  0
  9 10  1  1  0  0  0
 12 13  1  0  0  0  0
 12 18  1  0  0  0  0
 12 11  1  6  0  0  0
 13 15  1  0  0  0  0
 13 14  1  1  0  0  0
 15 16  1  0  0  0  0
 16 17  1  0  0  0  0
 16 21  1  6  0  0  0
 17 18  1  0  0  0  0
 18 19  1  1  0  0  0
 19 20  1  0  0  0  0
 22 21  1  6  0  0  0
 22 23  1  0  0  0  0
 22 46  1  0  0  0  0
 23 25  1  0  0  0  0
 23 24  1  1  0  0  0
 25 26  2  0  0  0  0
 26 27  1  0  0  0  0
 27 28  2  0  0  0  0
 28 29  1  0  0  0  0
 28 60  1  0  0  0  0
 29 30  1  0  0  0  0
 31 30  1  6  0  0  0
 31 32  1  0  0  0  0
 31 60  1  0  0  0  0
 32 33  1  1  0  0  0
 32 34  1  0  0  0  0
 34 35  1  0  0  0  0
 34 36  2  0  0  0  0
 37 36  1  6  0  0  0
 37 38  1  0  0  0  0
 37 60  1  0  0  0  0
 38 39  2  0  0  0  0
 38 40  1  0  0  0  0
 41 40  1  6  0  0  0
 41 42  1  0  0  0  0
 41 59  1  0  0  0  0
 43 42  1  6  0  0  0
 43 44  1  0  0  0  0
 43 48  1  0  0  0  0
 44 45  1  0  0  0  0
 45 46  2  0  0  0  0
 46 47  1  0  0  0  0
 49 48  1  6  0  0  0
 49 50  1  0  0  0  0
 49 55  1  0  0  0  0
 49 59  1  0  0  0  0
 50 51  1  0  0  0  0
 51 52  1  0  0  0  0
 52 54  1  0  0  0  0
 52 53  1  1  0  0  0
 54 55  1  0  0  0  0
 54 56  1  1  0  0  0
 56 57  1  0  0  0  0
 56 58  1  0  0  0  0
 60 61  1  1  0  0  0
 62 63  1  0  0  0  0
 64 65  1  1  0  0  0
 64 63  1  0  0  0  0
 66 67  1  6  0  0  0
 66 71  1  0  0  0  0
 66 64  1  0  0  0  0
 68 67  1  6  0  0  0
 68 69  1  0  0  0  0
 68 73  1  0  0  0  0
 68123  1  0  0  0  0
 69 70  1  0  0  0  0
 70 71  1  0  0  0  0
 71 72  1  1  0  0  0
 74 73  1  6  0  0  0
 74 75  1  0  0  0  0
 74120  1  0  0  0  0
 76 75  1  1  0  0  0
 76 77  1  0  0  0  0
 76123  1  0  0  0  0
 77 78  1  0  0  0  0
 78 79  2  0  0  0  0
 79 81  1  0  0  0  0
 79 80  1  0  0  0  0
 81103  1  0  0  0  0
 81 82  1  6  0  0  0
 83 84  1  0  0  0  0
 83102  1  0  0  0  0
 83 82  1  6  0  0  0
 84 85  1  0  0  0  0
 85 88  1  0  0  0  0
 85 86  1  6  0  0  0
 86 87  1  0  0  0  0
 88 89  1  1  0  0  0
 88100  1  0  0  0  0
 90 91  1  0  0  0  0
 90 99  1  0  0  0  0
 90 89  1  6  0  0  0
 91 92  1  0  0  0  0
 92 95  1  0  0  0  0
 92 93  1  6  0  0  0
 93 94  1  0  0  0  0
 95 96  1  1  0  0  0
 95 97  1  0  0  0  0
 97 99  1  0  0  0  0
 97 98  1  6  0  0  0
100102  1  0  0  0  0
100101  1  6  0  0  0
103105  1  0  0  0  0
103104  1  6  0  0  0
105106  2  0  0  0  0
106107  1  0  0  0  0
107108  2  0  0  0  0
108109  1  0  0  0  0
108121  1  0  0  0  0
109110  1  0  0  0  0
111110  1  6  0  0  0
111112  1  0  0  0  0
111121  1  0  0  0  0
112114  1  0  0  0  0
112113  1  6  0  0  0
114116  2  0  0  0  0
114115  1  0  0  0  0
117116  1  6  0  0  0
117118  1  0  0  0  0
117121  1  0  0  0  0
118120  1  0  0  0  0
118119  2  0  0  0  0
121122  1  1  0  0  0
M  END
