1321
 OpenBabel10141417513D

 58 60  0  0  1  0  0  0  0  0999 V2000
    1.9496   -2.8899   -1.1950 O   0  0  0  0  0  0  0  0  0  0  0  0
   -1.0478   -2.1016   -3.2120 O   0  0  0  0  0  0  0  0  0  0  0  0
   -2.8575   -0.8560   -2.1005 O   0  0  0  0  0  0  0  0  0  0  0  0
    1.4427   -3.9180    0.6847 O   0  0  0  0  0  0  0  0  0  0  0  0
   -0.6135   -1.6436    0.2545 O   0  0  0  0  0  0  0  0  0  0  0  0
    3.7466   -1.6832    1.2812 O   0  0  0  0  0  0  0  0  0  0  0  0
    2.5877   -2.4082    3.6608 O   0  0  0  0  0  0  0  0  0  0  0  0
   -6.0941   -0.1194   -0.3975 O   0  0  0  0  0  0  0  0  0  0  0  0
   -6.9078    0.6582   -2.9655 O   0  0  0  0  0  0  0  0  0  0  0  0
    2.0837    1.2526    0.6501 O   0  0  0  0  0  0  0  0  0  0  0  0
   -1.8669    4.2346    0.9906 O   0  0  0  0  0  0  0  0  0  0  0  0
   -3.2872    2.2502   -5.1984 O   0  0  0  0  0  0  0  0  0  0  0  0
    0.4148   -2.9680    4.2789 O   0  0  0  0  0  0  0  0  0  0  0  0
   -4.7505    3.4685   -3.8990 O   0  0  0  0  0  0  0  0  0  0  0  0
   -6.2489   -1.0214   -4.4220 O   0  0  0  0  0  0  0  0  0  0  0  0
   -1.3954   -4.8428   -1.5191 N   0  0  0  0  0  0  0  0  0  0  0  0
   -0.5969   -3.6526   -1.0570 C   0  0  1  0  0  0  0  0  0  0  0  0
    0.7197   -3.4015   -1.8774 C   0  0  1  0  0  0  0  0  0  0  0  0
   -1.3243   -2.3141   -0.7974 C   0  0  2  0  0  0  0  0  0  0  0  0
    0.3480   -2.5755   -3.1512 C   0  0  1  0  0  0  0  0  0  0  0  0
   -1.5010   -1.4024   -2.0226 C   0  0  1  0  0  0  0  0  0  0  0  0
   -3.5064   -0.0924   -0.9811 C   0  0  1  0  0  0  0  0  0  0  0  0
    3.9257   -3.0511    1.6554 C   0  0  2  0  0  0  0  0  0  0  0  0
    2.4311   -3.8975   -0.2678 C   0  0  2  0  0  0  0  0  0  0  0  0
   -2.6874    1.3093   -0.5442 C   0  0  2  0  0  0  0  0  0  0  0  0
    3.8086   -3.8889    0.3800 C   0  0  0  0  0  0  0  0  0  0  0  0
    2.8615   -3.5411    2.7296 C   0  0  2  0  0  0  0  0  0  0  0  0
    1.5820   -4.0941    2.0527 C   0  0  2  0  0  0  0  0  0  0  0  0
   -5.0772   -0.0093   -1.4393 C   0  0  2  0  0  0  0  0  0  0  0  0
   -1.3220    0.9420    0.1329 C   0  0  0  0  0  0  0  0  0  0  0  0
    0.5676   -3.5082   -4.3676 C   0  0  0  0  0  0  0  0  0  0  0  0
   -0.2722    1.9110    0.7350 C   0  0  2  0  0  0  0  0  0  0  0  0
   -3.4766    2.2795    0.3437 C   0  0  0  0  0  0  0  0  0  0  0  0
   -5.5228    0.9956   -2.5740 C   0  0  1  0  0  0  0  0  0  0  0  0
    5.3930   -3.2115    2.1217 C   0  0  0  0  0  0  0  0  0  0  0  0
   -2.4715   -5.1415   -0.5760 C   0  0  0  0  0  0  0  0  0  0  0  0
   -1.9470   -4.7886   -2.8629 C   0  0  0  0  0  0  0  0  0  0  0  0
    1.1932   -5.5485    2.2733 C   0  0  0  0  0  0  0  0  0  0  0  0
    1.1367    2.1510    0.0830 C   0  0  2  0  0  0  0  0  0  0  0  0
   -4.6617    1.0446   -3.8389 C   0  0  0  0  0  0  0  0  0  0  0  0
   -0.0913    1.6260    2.2415 C   0  0  0  0  0  0  0  0  0  0  0  0
   -3.0543    3.7231    0.8078 C   0  0  0  0  0  0  0  0  0  0  0  0
    1.3525   -2.1767    4.2170 C   0  0  0  0  0  0  0  0  0  0  0  0
    1.3695    2.1915   -1.4099 C   0  0  0  0  0  0  0  0  0  0  0  0
   -6.2294    0.8444    0.6224 C   0  0  0  0  0  0  0  0  0  0  0  0
   -4.2730    2.4056   -4.2792 C   0  0  0  0  0  0  0  0  0  0  0  0
    1.1919   -0.7665    4.7470 C   0  0  0  0  0  0  0  0  0  0  0  0
   -7.1033   -0.4222   -3.7794 C   0  0  0  0  0  0  0  0  0  0  0  0
    1.7522   -0.4917    6.1417 C   0  0  0  0  0  0  0  0  0  0  0  0
    0.4283    2.3659   -2.3372 C   0  0  0  0  0  0  0  0  0  0  0  0
   -2.3632    3.3338   -5.2979 C   0  0  1  0  0  0  0  0  0  0  0  0
   -8.5086   -0.8938   -3.7540 C   0  0  0  0  0  0  0  0  0  0  0  0
    1.3023   -1.5151    7.1895 C   0  0  0  0  0  0  0  0  0  0  0  0
    3.2630   -0.2908    6.0561 C   0  0  0  0  0  0  0  0  0  0  0  0
   -1.0107    2.7086   -5.7101 C   0  0  0  0  0  0  0  0  0  0  0  0
    0.5771    2.4218   -3.7726 C   0  0  0  0  0  0  0  0  0  0  0  0
   -0.4966    2.0241   -4.4706 C   0  0  0  0  0  0  0  0  0  0  0  0
   -2.8845    4.3667   -6.2716 C   0  0  0  0  0  0  0  0  0  0  0  0
  2 20  1  0  0  0  0
  2 21  1  0  0  0  0
  4 24  1  0  0  0  0
  4 28  1  0  0  0  0
  7 43  1  0  0  0  0
  8 45  1  0  0  0  0
  9 48  1  0  0  0  0
 11 42  2  0  0  0  0
 12 46  1  0  0  0  0
 12 51  1  0  0  0  0
 13 43  2  0  0  0  0
 14 46  2  0  0  0  0
 15 48  2  0  0  0  0
 16 36  1  0  0  0  0
 16 37  1  0  0  0  0
 17 18  1  0  0  0  0
 17 19  1  0  0  0  0
 17 16  1  6  0  0  0
 18  1  1  1  0  0  0
 18 20  1  0  0  0  0
 19  5  1  1  0  0  0
 19 21  1  0  0  0  0
 20 31  1  6  0  0  0
 21  3  1  6  0  0  0
 22  3  1  6  0  0  0
 22 25  1  0  0  0  0
 22 29  1  0  0  0  0
 23 26  1  0  0  0  0
 23 27  1  0  0  0  0
 23 35  1  1  0  0  0
 23  6  1  0  0  0  0
 24  1  1  1  0  0  0
 24 26  1  0  0  0  0
 25 30  1  0  0  0  0
 25 33  1  1  0  0  0
 27  7  1  1  0  0  0
 27 28  1  0  0  0  0
 28 38  1  6  0  0  0
 29  8  1  1  0  0  0
 29 34  1  0  0  0  0
 30 32  1  0  0  0  0
 32 39  1  0  0  0  0
 32 41  1  1  0  0  0
 33 42  1  0  0  0  0
 34 40  1  0  0  0  0
 34  9  1  6  0  0  0
 39 44  1  0  0  0  0
 39 10  1  6  0  0  0
 40 46  1  0  0  0  0
 43 47  1  0  0  0  0
 44 50  2  0  0  0  0
 47 49  1  0  0  0  0
 48 52  1  0  0  0  0
 49 53  1  0  0  0  0
 49 54  1  0  0  0  0
 50 56  1  0  0  0  0
 51 55  1  0  0  0  0
 51 58  1  6  0  0  0
 55 57  1  0  0  0  0
 56 57  2  0  0  0  0
M  END
