
 OpenBabel10141417513D

 33 35  0  0  0  0  0  0  0  0999 V2000
   -2.7742   -4.8399    5.2979 C   0  0  2  0  0  0  0  0  0  0  0  0
   -1.5648   -2.9402    6.5363 C   0  0  1  0  0  0  0  0  0  0  0  0
   -2.6656   -4.0800    3.9388 C   0  0  1  0  0  0  0  0  0  0  0  0
   -2.4951   -2.5472    4.1858 C   0  0  2  0  0  0  0  0  0  0  0  0
   -1.3327   -2.2186    5.1727 C   0  0  2  0  0  0  0  0  0  0  0  0
   -1.7441   -5.9225    2.6585 C   0  0  2  0  0  0  0  0  0  0  0  0
   -0.5384   -6.3920    1.8095 C   0  0  1  0  0  0  0  0  0  0  0  0
   -0.5155   -5.6380    0.4701 C   0  0  2  0  0  0  0  0  0  0  0  0
   -1.8608   -5.9047   -0.2472 C   0  0  1  0  0  0  0  0  0  0  0  0
   -3.0034   -5.4335    0.6804 C   0  0  2  0  0  0  0  0  0  0  0  0
   -2.9603   -6.1346    1.9351 O   0  0  0  0  0  0  0  0  0  0  0  0
   -1.8997   -5.2512   -1.5258 O   0  0  0  0  0  0  0  0  0  0  0  0
   -4.3963   -5.6426    0.0712 C   0  0  0  0  0  0  0  0  0  0  0  0
    0.6713   -6.0197   -0.3320 N   0  0  0  0  0  0  0  0  0  0  0  0
   -4.6105   -4.8436   -1.0854 O   0  0  0  0  0  0  0  0  0  0  0  0
   -2.6958   -2.4602    7.3486 N   0  0  0  0  0  0  0  0  0  0  0  0
   -4.0871   -4.6041    5.9402 N   0  0  0  0  0  0  0  0  0  0  0  0
   -3.7323   -1.9783    4.6526 O   0  0  0  0  0  0  0  0  0  0  0  0
   -1.6061   -4.5613    3.0860 O   0  0  0  0  0  0  0  0  0  0  0  0
   -0.0926   -2.6194    4.5347 O   0  0  0  0  0  0  0  0  0  0  0  0
    1.1145   -2.2925    5.2437 C   0  0  1  0  0  0  0  0  0  0  0  0
    1.1831   -3.0647    6.4317 O   0  0  0  0  0  0  0  0  0  0  0  0
    2.3304   -2.8793    7.2596 C   0  0  1  0  0  0  0  0  0  0  0  0
    3.6340   -3.1364    6.4851 C   0  0  2  0  0  0  0  0  0  0  0  0
    3.6468   -2.4528    5.1048 C   0  0  1  0  0  0  0  0  0  0  0  0
    2.3183   -2.6874    4.3635 C   0  0  1  0  0  0  0  0  0  0  0  0
    2.2751   -1.5676    8.0834 C   0  0  0  0  0  0  0  0  0  0  0  0
    2.3405   -0.2867    7.3842 N   0  0  0  0  0  0  0  0  0  0  0  0
    2.2502   -4.0974    4.0550 O   0  0  0  0  0  0  0  0  0  0  0  0
    3.9253   -1.0579    5.2295 O   0  0  0  0  0  0  0  0  0  0  0  0
    3.7880   -4.5567    6.2999 O   0  0  0  0  0  0  0  0  0  0  0  0
   -1.6378   -4.4523    6.2589 C   0  0  0  0  0  0  0  0  0  0  0  0
    0.7043   -6.2346    2.4964 O   0  0  0  0  0  0  0  0  0  0  0  0
  1 17  1  1  0  0  0
  1  3  1  0  0  0  0
  2 32  1  0  0  0  0
  2 16  1  6  0  0  0
  3  4  1  0  0  0  0
  3 19  1  1  0  0  0
  4  5  1  0  0  0  0
  4 18  1  1  0  0  0
  5  2  1  0  0  0  0
  5 20  1  6  0  0  0
  6 19  1  6  0  0  0
  6  7  1  0  0  0  0
  7  8  1  0  0  0  0
  7 33  1  1  0  0  0
  8  9  1  0  0  0  0
  8 14  1  6  0  0  0
  9 10  1  0  0  0  0
  9 12  1  6  0  0  0
 10 11  1  0  0  0  0
 10 13  1  6  0  0  0
 11  6  1  0  0  0  0
 13 15  1  0  0  0  0
 21 22  1  0  0  0  0
 21 20  1  6  0  0  0
 22 23  1  0  0  0  0
 23 24  1  0  0  0  0
 23 27  1  6  0  0  0
 24 25  1  0  0  0  0
 24 31  1  6  0  0  0
 25 26  1  0  0  0  0
 25 30  1  1  0  0  0
 26 21  1  0  0  0  0
 26 29  1  1  0  0  0
 27 28  1  0  0  0  0
 32  1  1  0  0  0  0
M  END
