920
 OpenBabel10141417493D

 22 25  0  0  0  0  0  0  0  0999 V2000
    3.2661   -0.9929    0.9424 S   0  0  0  0  0  0  0  0  0  0  0  0
    1.0991   -3.0320    0.5459 O   0  0  0  0  0  0  0  0  0  0  0  0
    0.4622    2.5653   -4.8425 N   0  0  0  0  0  0  0  0  0  0  0  0
    0.3711    1.8240   -1.9317 C   0  0  0  0  0  0  0  0  0  0  0  0
   -0.8559    2.3392   -2.6849 C   0  0  0  0  0  0  0  0  0  0  0  0
    1.6555    2.2627   -2.6302 C   0  0  0  0  0  0  0  0  0  0  0  0
   -0.7756    2.0962   -4.2030 C   0  0  0  0  0  0  0  0  0  0  0  0
    1.6255    2.0013   -4.1450 C   0  0  0  0  0  0  0  0  0  0  0  0
    0.3337    1.0570   -0.8037 C   0  0  0  0  0  0  0  0  0  0  0  0
   -0.9964    0.6387   -0.2671 C   0  0  0  0  0  0  0  0  0  0  0  0
    1.5315    0.5658   -0.1436 C   0  0  0  0  0  0  0  0  0  0  0  0
   -1.3570   -0.7231   -0.2768 C   0  0  0  0  0  0  0  0  0  0  0  0
    0.5230    4.0230   -4.9254 C   0  0  0  0  0  0  0  0  0  0  0  0
    1.7226   -0.7610    0.2180 C   0  0  0  0  0  0  0  0  0  0  0  0
   -0.3978   -1.7683   -0.7930 C   0  0  0  0  0  0  0  0  0  0  0  0
    0.8504   -1.9259    0.0612 C   0  0  0  0  0  0  0  0  0  0  0  0
   -1.8877    1.5843    0.2650 C   0  0  0  0  0  0  0  0  0  0  0  0
    2.6296    1.3904    0.2713 C   0  0  0  0  0  0  0  0  0  0  0  0
   -2.6214   -1.1047    0.1988 C   0  0  0  0  0  0  0  0  0  0  0  0
    3.6571    0.6611    0.8218 C   0  0  0  0  0  0  0  0  0  0  0  0
   -3.1468    1.1932    0.7219 C   0  0  0  0  0  0  0  0  0  0  0  0
   -3.5146   -0.1490    0.6831 C   0  0  0  0  0  0  0  0  0  0  0  0
  1 14  1  0  0  0  0
  1 20  1  0  0  0  0
  2 16  2  0  0  0  0
  3  7  1  0  0  0  0
  3  8  1  0  0  0  0
  3 13  1  0  0  0  0
  4  5  1  0  0  0  0
  4  6  1  0  0  0  0
  4  9  2  0  0  0  0
  5  7  1  0  0  0  0
  6  8  1  0  0  0  0
  9 10  1  0  0  0  0
  9 11  1  0  0  0  0
 10 12  1  0  0  0  0
 10 17  2  0  0  0  0
 11 14  2  0  0  0  0
 11 18  1  0  0  0  0
 12 15  1  0  0  0  0
 12 19  2  0  0  0  0
 14 16  1  0  0  0  0
 15 16  1  0  0  0  0
 17 21  1  0  0  0  0
 18 20  2  0  0  0  0
 19 22  1  0  0  0  0
 21 22  2  0  0  0  0
M  END
