465
 OpenBabel10141417483D

 19 21  0  0  1  0  0  0  0  0999 V2000
    0.7435    0.4568   -0.0515 O   0  0  0  0  0  0  0  0  0  0  0  0
    2.7392    1.0244   -0.8569 O   0  0  0  0  0  0  0  0  0  0  0  0
    4.9041   -4.5658   -1.4388 O   0  0  0  0  0  0  0  0  0  0  0  0
    3.3182   -2.6630    0.1045 N   0  0  0  0  0  0  0  0  0  0  0  0
    2.6310   -0.5944    0.9802 C   0  0  3  0  0  0  0  0  0  0  0  0
    4.1842   -0.6712    0.9438 C   0  0  0  0  0  0  0  0  0  0  0  0
    4.5231   -1.8546    0.0169 C   0  0  0  0  0  0  0  0  0  0  0  0
    2.2605   -1.9937    0.6444 C   0  0  0  0  0  0  0  0  0  0  0  0
    3.0087   -3.9521   -0.1904 C   0  0  0  0  0  0  0  0  0  0  0  0
    1.1901   -2.8432    0.6811 C   0  0  0  0  0  0  0  0  0  0  0  0
    1.6539   -4.0729    0.1258 C   0  0  0  0  0  0  0  0  0  0  0  0
    2.0902    0.3614   -0.0663 C   0  0  0  0  0  0  0  0  0  0  0  0
    3.9446   -4.9098   -0.7509 C   0  0  0  0  0  0  0  0  0  0  0  0
    3.7788   -6.3657   -0.4628 C   0  0  0  0  0  0  0  0  0  0  0  0
    4.2367   -7.3007   -1.4008 C   0  0  0  0  0  0  0  0  0  0  0  0
    3.2473   -6.8162    0.7538 C   0  0  0  0  0  0  0  0  0  0  0  0
    4.1411   -8.6686   -1.1333 C   0  0  0  0  0  0  0  0  0  0  0  0
    3.1473   -8.1841    1.0147 C   0  0  0  0  0  0  0  0  0  0  0  0
    3.5939   -9.1084    0.0720 C   0  0  0  0  0  0  0  0  0  0  0  0
  1 12  1  0  0  0  0
  2 12  2  0  0  0  0
  3 13  2  0  0  0  0
  4  7  1  0  0  0  0
  4  8  1  0  0  0  0
  4  9  1  0  0  0  0
  5  6  1  0  0  0  0
  5  8  1  0  0  0  0
  5 12  1  0  0  0  0
  6  7  1  0  0  0  0
  8 10  2  0  0  0  0
  9 11  2  0  0  0  0
  9 13  1  0  0  0  0
 10 11  1  0  0  0  0
 13 14  1  0  0  0  0
 14 15  2  0  0  0  0
 14 16  1  0  0  0  0
 15 17  1  0  0  0  0
 16 18  2  0  0  0  0
 17 19  2  0  0  0  0
 18 19  1  0  0  0  0
M  END
