
 OpenBabel10141417473D

  6  5  0  0  0  0  0  0  0  0999 V2000
   -0.8410   -1.0828    1.2403 C   0  0  0  0  0  0  0  0  0  0  0  0
    0.2770   -0.0355    1.2975 C   0  0  1  0  0  0  0  0  0  0  0  0
   -0.4087   -2.3606    1.3529 O   0  0  0  0  0  0  0  0  0  0  0  0
   -2.0226   -0.8105    1.0790 O   0  0  0  0  0  0  0  0  0  0  0  0
    1.2711   -0.3517    2.3374 N   0  0  0  0  0  0  0  0  0  0  0  0
    0.9454    0.0745   -0.0646 C   0  0  0  0  0  0  0  0  0  0  0  0
  2  5  1  1  0  0  0
  2  6  1  0  0  0  0
  2  1  1  0  0  0  0
  3  1  1  0  0  0  0
  4  1  2  0  0  0  0
M  END
