
 OpenBabel10141418123D

 12 11  0  0  1  0  0  0  0  0999 V2000
    2.3686    2.2316   -0.9331 O   0  0  0  0  0  0  0  0  0  0  0  0
    3.5879    2.0783   -1.0433 C   0  0  0  0  0  0  0  0  0  0  0  0
    4.4270    3.0665   -1.4369 O   0  0  0  0  0  0  0  0  0  0  0  0
    4.3500    0.7895   -0.7149 C   0  0  1  0  0  0  0  0  0  0  0  0
    5.7313    0.9121   -1.2413 N   0  0  0  0  0  0  0  0  0  0  0  0
    4.3136    0.5125    0.7970 C   0  0  0  0  0  0  0  0  0  0  0  0
    4.9401    1.5742    1.7262 C   0  0  0  0  0  0  0  0  0  0  0  0
    6.4300    1.8890    1.5352 C   0  0  0  0  0  0  0  0  0  0  0  0
    7.2194    0.6950    1.7769 N   0  0  0  0  0  0  0  0  0  0  0  0
    8.2779    0.2952    1.0425 C   0  0  0  0  0  0  0  0  0  0  0  0
    9.0135    0.9910    0.2607 N   0  0  0  0  0  0  0  0  0  0  0  0
    8.5221   -1.0233    1.1521 N   0  0  0  0  0  0  0  0  0  0  0  0
  2  1  2  0  0  0  0
  3  2  1  0  0  0  0
  4  2  1  1  0  0  0
  4  5  1  0  0  0  0
  6  4  1  0  0  0  0
  7  6  1  0  0  0  0
  7  8  1  0  0  0  0
  9  8  1  0  0  0  0
 10  9  1  0  0  0  0
 11 10  2  0  0  0  0
 12 10  1  0  0  0  0
M  END
