128
 OpenBabel10141417483D

  9  8  0  0  1  0  0  0  0  0999 V2000
    0.4067   -0.6185   -0.5877 O   0  0  0  0  0  0  0  0  0  0  0  0
    3.5651    1.5967    1.4144 O   0  0  0  0  0  0  0  0  0  0  0  0
    1.3140    1.3295    0.0511 O   0  0  0  0  0  0  0  0  0  0  0  0
    4.8183   -0.2727    1.3199 O   0  0  0  0  0  0  0  0  0  0  0  0
    2.5608   -0.2907   -2.5972 N   0  0  0  0  0  0  0  0  0  0  0  0
    2.7306   -0.2872   -1.1257 C   0  0  1  0  0  0  0  0  0  0  0  0
    3.9179    0.5907   -0.7361 C   0  0  0  0  0  0  0  0  0  0  0  0
    1.4436    0.2347   -0.4810 C   0  0  0  0  0  0  0  0  0  0  0  0
    4.1576    0.5780    0.7530 C   0  0  0  0  0  0  0  0  0  0  0  0
  1  8  1  0  0  0  0
  2  9  1  0  0  0  0
  3  8  2  0  0  0  0
  4  9  2  0  0  0  0
  6  5  1  6  0  0  0
  6  7  1  0  0  0  0
  6  8  1  0  0  0  0
  7  9  1  0  0  0  0
M  END
