583
 OpenBabel10141417523D

 11 10  0  0  1  0  0  0  0  0999 V2000
    2.5996    0.1673   -1.8570 O   0  0  0  0  0  0  0  0  0  0  0  0
    0.0307   -0.3415    1.3831 O   0  5  0  0  0  0  0  0  0  0  0  0
   -0.9486    1.5292    0.5148 O   0  0  0  0  0  0  0  0  0  0  0  0
    2.4031    2.9431   -0.5316 N   0  3  0  0  0  0  0  0  0  0  0  0
    2.4548    1.5498    0.1748 C   0  0  0  0  0  0  0  0  0  0  0  0
    1.9147    0.3123   -0.6003 C   0  0  1  0  0  0  0  0  0  0  0  0
    3.1505    2.9236   -1.8495 C   0  0  0  0  0  0  0  0  0  0  0  0
    0.9731    3.4179   -0.7512 C   0  0  0  0  0  0  0  0  0  0  0  0
    3.0579    3.9499    0.4053 C   0  0  0  0  0  0  0  0  0  0  0  0
    0.4186    0.2223   -0.8548 C   0  0  0  0  0  0  0  0  0  0  0  0
   -0.2736    0.4653    0.4777 C   0  0  0  0  0  0  0  0  0  0  0  0
  2 11  1  0  0  0  0
  3 11  2  0  0  0  0
  4  5  1  0  0  0  0
  4  7  1  0  0  0  0
  4  8  1  0  0  0  0
  4  9  1  0  0  0  0
  5  6  1  0  0  0  0
  6  1  1  6  0  0  0
  6 10  1  0  0  0  0
 10 11  1  0  0  0  0
M  CHG  2   2  -1   4   1
M  END
