155
 OpenBabel10141417503D

 12 11  0  0  1  0  0  0  0  0999 V2000
    1.9565   -0.7039   -2.1024 O   0  0  0  0  0  0  0  0  0  0  0  0
    2.2243    1.1982   -3.2415 O   0  0  0  0  0  0  0  0  0  0  0  0
    6.9227   -0.7815    0.5318 O   0  0  0  0  0  0  0  0  0  0  0  0
    7.0870   -0.4231   -1.7405 N   0  0  0  0  0  0  0  0  0  0  0  0
    2.2077    0.5954    0.2622 N   0  0  0  0  0  0  0  0  0  0  0  0
    7.4053   -2.4798   -0.8658 N   0  0  0  0  0  0  0  0  0  0  0  0
    4.4474    0.7367   -0.7845 C   0  0  0  0  0  0  0  0  0  0  0  0
    5.3313    1.3173   -1.8989 C   0  0  0  0  0  0  0  0  0  0  0  0
    2.9689    1.1262   -0.8959 C   0  0  1  0  0  0  0  0  0  0  0  0
    6.8187    1.0011   -1.7043 C   0  0  0  0  0  0  0  0  0  0  0  0
    2.3458    0.5908   -2.1857 C   0  0  0  0  0  0  0  0  0  0  0  0
    7.1320   -1.1789   -0.6033 C   0  0  0  0  0  0  0  0  0  0  0  0
  1 11  1  0  0  0  0
  2 11  2  0  0  0  0
  3 12  2  0  0  0  0
  4 10  1  0  0  0  0
  4 12  1  0  0  0  0
  6 12  1  0  0  0  0
  7  8  1  0  0  0  0
  7  9  1  0  0  0  0
  8 10  1  0  0  0  0
  9  5  1  1  0  0  0
  9 11  1  0  0  0  0
M  END
