
 OpenBabel10141417493D

  7  6  0  0  0  0  0  0  0  0999 V2000
   -0.4738   -0.2565    2.0148 C   0  0  0  0  0  0  0  0  0  0  0  0
    0.2843    0.6403    1.0270 C   0  0  2  0  0  0  0  0  0  0  0  0
    1.2895   -0.2033    0.2239 C   0  0  0  0  0  0  0  0  0  0  0  0
   -0.4175    0.1632    3.2999 O   0  0  0  0  0  0  0  0  0  0  0  0
   -1.0767   -1.2725    1.6920 O   0  0  0  0  0  0  0  0  0  0  0  0
    0.9314    1.7994    1.6787 N   0  0  0  0  0  0  0  0  0  0  0  0
    2.7104   -0.7920    1.2191 S   0  0  0  0  0  0  0  0  0  0  0  0
  2  6  1  1  0  0  0
  2  3  1  0  0  0  0
  2  1  1  0  0  0  0
  4  1  1  0  0  0  0
  5  1  2  0  0  0  0
  7  3  1  0  0  0  0
M  END
