
 OpenBabel10141417503D

 14 13  0  0  0  0  0  0  0  0999 V2000
    0.0842   -1.5844   -0.0242 C   0  0  0  0  0  0  0  0  0  0  0  0
   -0.3287   -0.8926   -1.3316 C   0  0  1  0  0  0  0  0  0  0  0  0
    0.3015   -0.9944    1.0212 O   0  0  0  0  0  0  0  0  0  0  0  0
   -1.5692   -0.0922   -1.1373 N   0  0  0  0  0  0  0  0  0  0  0  0
    2.3804   -0.7142   -2.2412 S   0  0  0  0  0  0  0  0  0  0  0  0
    0.7771    0.0502   -1.8177 C   0  0  0  0  0  0  0  0  0  0  0  0
    0.1463   -2.9390   -0.1048 O   0  0  0  0  0  0  0  0  0  0  0  0
    3.3417   -0.6132   -6.2767 C   0  0  0  0  0  0  0  0  0  0  0  0
    2.1485    0.0520   -5.6093 C   0  0  1  0  0  0  0  0  0  0  0  0
    4.5216   -0.4648   -5.9746 O   0  0  0  0  0  0  0  0  0  0  0  0
    1.4269    0.9048   -6.5973 N   0  0  0  0  0  0  0  0  0  0  0  0
    1.8763   -2.0677   -3.6994 S   0  0  0  0  0  0  0  0  0  0  0  0
    1.2038   -1.0116   -5.0408 C   0  0  0  0  0  0  0  0  0  0  0  0
    3.0069   -1.3935   -7.3230 O   0  0  0  0  0  0  0  0  0  0  0  0
  1  3  2  0  0  0  0
  2  1  1  1  0  0  0
  2  4  1  0  0  0  0
  2  6  1  0  0  0  0
  5  6  1  0  0  0  0
  5 12  1  0  0  0  0
  7  1  1  0  0  0  0
  8 10  2  0  0  0  0
  9  8  1  6  0  0  0
  9 11  1  0  0  0  0
  9 13  1  0  0  0  0
 12 13  1  0  0  0  0
 14  8  1  0  0  0  0
M  END
