1235
 OpenBabel10141417533D

 14 14  0  0  1  0  0  0  0  0999 V2000
    2.0035   -9.0766   -0.1575 O   0  0  0  0  0  0  0  0  0  0  0  0
    4.7018   -2.1361   -2.1207 O   0  0  0  0  0  0  0  0  0  0  0  0
    0.2620   -9.5536   -2.1765 O   0  0  0  0  0  0  0  0  0  0  0  0
    2.5989   -1.3013   -1.9153 O   0  0  0  0  0  0  0  0  0  0  0  0
    4.1003   -4.4428   -2.9472 N   0  0  0  0  0  0  0  0  0  0  0  0
    2.1542   -4.2697   -1.3249 C   0  0  0  0  0  0  0  0  0  0  0  0
    2.8932   -3.6565   -2.5301 C   0  0  1  0  0  0  0  0  0  0  0  0
    1.6450   -5.6804   -1.5477 C   0  0  0  0  0  0  0  0  0  0  0  0
    2.0771   -6.7287   -0.7158 C   0  0  0  0  0  0  0  0  0  0  0  0
    0.7245   -5.9586   -2.5743 C   0  0  0  0  0  0  0  0  0  0  0  0
    1.6071   -8.0215   -0.9326 C   0  0  0  0  0  0  0  0  0  0  0  0
    3.3478   -2.2363   -2.1614 C   0  0  0  0  0  0  0  0  0  0  0  0
    0.2666   -7.2613   -2.7894 C   0  0  0  0  0  0  0  0  0  0  0  0
    0.7120   -8.2821   -1.9652 C   0  0  0  0  0  0  0  0  0  0  0  0
  1 11  1  0  0  0  0
  2 12  1  0  0  0  0
  3 14  1  0  0  0  0
  4 12  2  0  0  0  0
  6  8  1  0  0  0  0
  7 12  1  1  0  0  0
  7  6  1  0  0  0  0
  7  5  1  0  0  0  0
  8  9  2  0  0  0  0
  8 10  1  0  0  0  0
  9 11  1  0  0  0  0
 10 13  2  0  0  0  0
 11 14  2  0  0  0  0
 13 14  1  0  0  0  0
M  END
