167
 OpenBabel10141417483D

  9  8  0  0  1  0  0  0  0  0999 V2000
    3.5985    1.0002   -2.9531 O   0  0  0  0  0  0  0  0  0  0  0  0
    4.3921   -0.8738   -1.9458 O   0  0  0  0  0  0  0  0  0  0  0  0
    4.8532    2.7132   -1.6090 N   0  0  0  0  0  0  0  0  0  0  0  0
    4.6021    1.1303    0.3933 C   0  0  2  0  0  0  0  0  0  0  0  0
    5.0587    1.3284   -1.0776 C   0  0  1  0  0  0  0  0  0  0  0  0
    3.0787    1.3088    0.5779 C   0  0  0  0  0  0  0  0  0  0  0  0
    5.4025    2.0329    1.3446 C   0  0  0  0  0  0  0  0  0  0  0  0
    2.5836    0.9665    1.9792 C   0  0  0  0  0  0  0  0  0  0  0  0
    4.3365    0.3386   -2.0195 C   0  0  0  0  0  0  0  0  0  0  0  0
  1  9  1  0  0  0  0
  2  9  2  0  0  0  0
  4  7  1  1  0  0  0
  4  6  1  0  0  0  0
  4  5  1  0  0  0  0
  5  3  1  6  0  0  0
  5  9  1  0  0  0  0
  6  8  1  0  0  0  0
M  END
