134
 OpenBabel10141417483D

  9  8  0  0  1  0  0  0  0  0999 V2000
   -1.4216   -4.3125    4.6569 S   0  0  0  0  0  0  0  0  0  0  0  0
   -4.7830   -2.2076    1.1075 O   0  0  0  0  0  0  0  0  0  0  0  0
   -4.6778   -3.8439    2.6740 O   0  0  0  0  0  0  0  0  0  0  0  0
   -2.3622   -1.5307    1.0896 N   0  0  0  0  0  0  0  0  0  0  0  0
   -2.3622   -1.9192    3.5520 C   0  0  0  0  0  0  0  0  0  0  0  0
   -2.6559   -2.5318    2.1729 C   0  0  1  0  0  0  0  0  0  0  0  0
   -2.5285   -2.8659    4.7519 C   0  0  0  0  0  0  0  0  0  0  0  0
   -4.1305   -2.9545    2.0355 C   0  0  0  0  0  0  0  0  0  0  0  0
   -1.9398   -5.1716    6.1671 C   0  0  0  0  0  0  0  0  0  0  0  0
  1  7  1  0  0  0  0
  1  9  1  0  0  0  0
  2  8  1  0  0  0  0
  3  8  2  0  0  0  0
  5  7  1  0  0  0  0
  6  8  1  1  0  0  0
  6  5  1  0  0  0  0
  6  4  1  0  0  0  0
M  END
