120
 OpenBabel10141418123D

 12 12  0  0  1  0  0  0  0  0999 V2000
    1.5866    2.5412    2.5225 O   0  0  0  0  0  0  0  0  0  0  0  0
    2.0172    2.9069    0.3597 O   0  0  0  0  0  0  0  0  0  0  0  0
    2.2066   -0.0680    0.3909 N   0  0  0  0  0  0  0  0  0  0  0  0
    4.3404    1.0091    1.0846 C   0  0  0  0  0  0  0  0  0  0  0  0
    2.8426    0.8332    1.3861 C   0  0  1  0  0  0  0  0  0  0  0  0
    5.1003    1.8624    2.0754 C   0  0  0  0  0  0  0  0  0  0  0  0
    5.7407    3.0349    1.6486 C   0  0  0  0  0  0  0  0  0  0  0  0
    5.2175    1.4805    3.4192 C   0  0  0  0  0  0  0  0  0  0  0  0
    2.1338    2.1881    1.3420 C   0  0  0  0  0  0  0  0  0  0  0  0
    6.4768    3.8112    2.5461 C   0  0  0  0  0  0  0  0  0  0  0  0
    5.9572    2.2570    4.3147 C   0  0  0  0  0  0  0  0  0  0  0  0
    6.5859    3.4213    3.8795 C   0  0  0  0  0  0  0  0  0  0  0  0
  1  9  1  0  0  0  0
  2  9  2  0  0  0  0
  4  5  1  0  0  0  0
  4  6  1  0  0  0  0
  5  3  1  6  0  0  0
  5  9  1  0  0  0  0
  6  7  2  0  0  0  0
  6  8  1  0  0  0  0
  7 10  1  0  0  0  0
  8 11  2  0  0  0  0
 10 12  2  0  0  0  0
 11 12  1  0  0  0  0
M  END
