172
 OpenBabel10141417493D

  8  8  0  0  1  0  0  0  0  0999 V2000
    4.4560    0.2798   -2.3057 O   0  0  0  0  0  0  0  0  0  0  0  0
    5.3423   -0.1796   -0.3131 O   0  0  0  0  0  0  0  0  0  0  0  0
    2.2855   -1.2364   -2.0226 N   0  0  0  0  0  0  0  0  0  0  0  0
    3.0558   -0.9703   -0.7803 C   0  0  1  0  0  0  0  0  0  0  0  0
    3.2514   -2.3393   -0.1309 C   0  0  0  0  0  0  0  0  0  0  0  0
    2.6658   -3.3408   -1.1169 C   0  0  0  0  0  0  0  0  0  0  0  0
    2.6422   -2.5922   -2.4314 C   0  0  0  0  0  0  0  0  0  0  0  0
    4.3950   -0.2838   -1.0765 C   0  0  0  0  0  0  0  0  0  0  0  0
  1  8  1  0  0  0  0
  2  8  2  0  0  0  0
  3  4  1  0  0  0  0
  3  7  1  0  0  0  0
  4  5  1  0  0  0  0
  4  8  1  6  0  0  0
  5  6  1  0  0  0  0
  6  7  1  0  0  0  0
M  END
