
 OpenBabel10141417483D

  7  6  0  0  1  0  0  0  0  0999 V2000
   -0.1722    2.1633    0.6907 C   0  0  0  0  0  0  0  0  0  0  0  0
    0.1737    1.0717   -0.3414 C   0  0  2  0  0  0  0  0  0  0  0  0
    1.0647   -0.0204    0.2577 C   0  0  0  0  0  0  0  0  0  0  0  0
   -0.4032    1.7149    1.9450 O   0  0  0  0  0  0  0  0  0  0  0  0
   -0.2970    3.3492    0.3954 O   0  0  0  0  0  0  0  0  0  0  0  0
    0.8304    1.6828   -1.5215 N   0  0  0  0  0  0  0  0  0  0  0  0
    0.3695   -0.6597    1.3381 O   0  0  0  0  0  0  0  0  0  0  0  0
  2  6  1  6  0  0  0
  2  3  1  0  0  0  0
  2  1  1  0  0  0  0
  4  1  1  0  0  0  0
  5  1  2  0  0  0  0
  7  3  1  0  0  0  0
M  END
