
 OpenBabel10141417503D

  8  7  0  0  0  0  0  0  0  0999 V2000
    2.5835   -0.2730   -1.6484 O   0  0  0  0  0  0  0  0  0  0  0  0
    3.7913   -0.1263   -1.7222 C   0  0  0  0  0  0  0  0  0  0  0  0
    4.5617   -0.7779   -2.6345 O   0  0  0  0  0  0  0  0  0  0  0  0
    4.6418    0.8063   -0.8415 C   0  0  1  0  0  0  0  0  0  0  0  0
    6.0912    0.5260   -1.1513 N   0  0  0  0  0  0  0  0  0  0  0  0
    4.3890    0.6014    0.6664 C   0  0  2  0  0  0  0  0  0  0  0  0
    4.8367   -0.7008    1.0650 O   0  0  0  0  0  0  0  0  0  0  0  0
    2.9564    0.8339    1.1255 C   0  0  0  0  0  0  0  0  0  0  0  0
  2  1  2  0  0  0  0
  3  2  1  0  0  0  0
  4  2  1  1  0  0  0
  4  5  1  0  0  0  0
  6  8  1  6  0  0  0
  6  7  1  0  0  0  0
  6  4  1  0  0  0  0
M  END
