135
 OpenBabel10141417483D

 13 13  0  0  1  0  0  0  0  0999 V2000
    1.4973    1.5647    0.1235 O   0  0  0  0  0  0  0  0  0  0  0  0
    6.8666    3.7979    6.3076 O   0  0  0  0  0  0  0  0  0  0  0  0
    1.7067   -0.5560    0.7766 O   0  0  0  0  0  0  0  0  0  0  0  0
    2.2482    0.3529    3.4389 N   0  0  0  0  0  0  0  0  0  0  0  0
    4.0121    1.4367    2.0086 C   0  0  0  0  0  0  0  0  0  0  0  0
    2.5092    1.2330    2.2762 C   0  0  1  0  0  0  0  0  0  0  0  0
    4.7740    2.0593    3.1598 C   0  0  0  0  0  0  0  0  0  0  0  0
    5.8296    1.3636    3.7695 C   0  0  0  0  0  0  0  0  0  0  0  0
    4.4511    3.3423    3.6254 C   0  0  0  0  0  0  0  0  0  0  0  0
    1.8669    0.6276    1.0237 C   0  0  0  0  0  0  0  0  0  0  0  0
    6.5419    1.9336    4.8282 C   0  0  0  0  0  0  0  0  0  0  0  0
    5.1610    3.9103    4.6852 C   0  0  0  0  0  0  0  0  0  0  0  0
    6.1991    3.2035    5.2781 C   0  0  0  0  0  0  0  0  0  0  0  0
  1 10  1  0  0  0  0
  2 13  1  0  0  0  0
  3 10  2  0  0  0  0
  5  6  1  0  0  0  0
  5  7  1  0  0  0  0
  6  4  1  1  0  0  0
  6 10  1  0  0  0  0
  7  8  2  0  0  0  0
  7  9  1  0  0  0  0
  8 11  1  0  0  0  0
  9 12  2  0  0  0  0
 11 13  2  0  0  0  0
 12 13  1  0  0  0  0
M  END
