
 OpenBabel10141417473D

  8  7  0  0  0  0  0  0  0  0999 V2000
    2.5010   -2.7584   -1.2036 O   0  0  0  0  0  0  0  0  0  0  0  0
    2.7214   -1.7205   -1.8097 C   0  0  0  0  0  0  0  0  0  0  0  0
    2.6175   -1.6382   -3.1571 O   0  0  0  0  0  0  0  0  0  0  0  0
    3.1152   -0.3896   -1.1329 C   0  0  1  0  0  0  0  0  0  0  0  0
    2.4519   -0.3003    0.1890 N   0  0  0  0  0  0  0  0  0  0  0  0
    4.6465   -0.2171   -0.9958 C   0  0  0  0  0  0  0  0  0  0  0  0
    5.3166   -1.2941   -0.1346 C   0  0  0  0  0  0  0  0  0  0  0  0
    5.3386   -0.1471   -2.3612 C   0  0  0  0  0  0  0  0  0  0  0  0
  2  1  2  0  0  0  0
  3  2  1  0  0  0  0
  4  2  1  1  0  0  0
  4  5  1  0  0  0  0
  6  4  1  0  0  0  0
  7  6  1  0  0  0  0
  8  6  1  0  0  0  0
M  END
