
 OpenBabel10141417483D

 18 18  0  0  0  0  0  0  0  0999 V2000
   -3.1005    0.1820    3.7002 C   0  0  0  0  0  0  0  0  0  0  0  0
   -2.5786    0.0500    2.4050 C   0  0  0  0  0  0  0  0  0  0  0  0
   -1.1866    0.0126    2.2380 C   0  0  0  0  0  0  0  0  0  0  0  0
   -0.3381    0.0700    3.3469 C   0  0  0  0  0  0  0  0  0  0  0  0
   -0.8705    0.1791    4.6304 C   0  0  0  0  0  0  0  0  0  0  0  0
   -2.2511    0.2408    4.8067 C   0  0  0  0  0  0  0  0  0  0  0  0
   -3.5072   -0.0412    1.2219 C   0  0  0  0  0  0  0  0  0  0  0  0
   -3.8008    1.2634    0.6784 N   0  0  0  0  0  0  0  0  0  0  0  0
   -4.9584    1.5263   -0.0195 C   0  0  0  0  0  0  0  0  0  0  0  0
   -5.8472    0.6909   -0.1867 O   0  0  0  0  0  0  0  0  0  0  0  0
   -5.0997    2.9761   -0.5304 C   0  0  1  0  0  0  0  0  0  0  0  0
   -3.9969    3.3149   -1.5460 C   0  0  0  0  0  0  0  0  0  0  0  0
   -2.7005    3.2642   -0.9334 O   0  0  0  0  0  0  0  0  0  0  0  0
   -1.6693    3.5505   -1.8738 C   0  0  0  0  0  0  0  0  0  0  0  0
   -6.4324    3.1268   -1.1275 N   0  0  0  0  0  0  0  0  0  0  0  0
   -7.0621    4.3465   -1.1982 C   0  0  0  0  0  0  0  0  0  0  0  0
   -6.5948    5.3718   -0.7343 O   0  0  0  0  0  0  0  0  0  0  0  0
   -8.3590    4.3295   -1.9709 C   0  0  0  0  0  0  0  0  0  0  0  0
  1  2  1  0  0  0  0
  1  6  2  0  0  0  0
  2  3  2  0  0  0  0
  2  7  1  0  0  0  0
  3  4  1  0  0  0  0
  4  5  2  0  0  0  0
  5  6  1  0  0  0  0
  7  8  1  0  0  0  0
  8  9  1  0  0  0  0
  9 10  2  0  0  0  0
 11  9  1  6  0  0  0
 11 12  1  0  0  0  0
 11 15  1  0  0  0  0
 12 13  1  0  0  0  0
 13 14  1  0  0  0  0
 15 16  1  0  0  0  0
 16 17  2  0  0  0  0
 16 18  1  0  0  0  0
M  END
