581
 OpenBabel10141417523D

 23 24  0  0  1  0  0  0  0  0999 V2000
    1.3362   -0.2647   -0.6850 O   0  0  0  0  0  0  0  0  0  0  0  0
    0.7441   -1.8349   -3.6357 O   0  0  0  0  0  0  0  0  0  0  0  0
    2.5153   -1.3728    1.0637 O   0  0  0  0  0  0  0  0  0  0  0  0
   -1.6538   -1.5985   -0.9804 O   0  0  0  0  0  0  0  0  0  0  0  0
   -1.1049   -3.1455   -3.0661 O   0  0  0  0  0  0  0  0  0  0  0  0
    4.6288    0.8350    0.4992 O   0  0  0  0  0  0  0  0  0  0  0  0
    1.2922    1.9633    1.4791 O   0  0  0  0  0  0  0  0  0  0  0  0
    2.0355    0.9241    3.9431 O   0  0  0  0  0  0  0  0  0  0  0  0
    2.7976   -3.6637   -1.1898 O   0  0  0  0  0  0  0  0  0  0  0  0
   -1.4287   -1.5841   -5.5453 O   0  0  0  0  0  0  0  0  0  0  0  0
   -0.3064   -0.2655    1.3963 O   0  0  0  0  0  0  0  0  0  0  0  0
    0.7829   -1.4781   -1.2509 C   0  0  1  0  0  0  0  0  0  0  0  0
   -0.5941   -1.1248   -1.8239 C   0  0  1  0  0  0  0  0  0  0  0  0
    1.5673   -1.9986   -2.4678 C   0  0  1  0  0  0  0  0  0  0  0  0
   -0.6225   -1.8115   -3.2008 C   0  0  1  0  0  0  0  0  0  0  0  0
    2.5901   -0.4576   -0.0236 C   0  0  2  0  0  0  0  0  0  0  0  0
    3.2034    0.9219    0.3495 C   0  0  1  0  0  0  0  0  0  0  0  0
    2.6313    1.4801    1.6549 C   0  0  2  0  0  0  0  0  0  0  0  0
    2.6369    0.4140    2.7502 C   0  0  2  0  0  0  0  0  0  0  0  0
    1.9800   -0.8989    2.2996 C   0  0  1  0  0  0  0  0  0  0  0  0
    1.9523   -3.4780   -2.3169 C   0  0  0  0  0  0  0  0  0  0  0  0
   -1.4637   -1.0286   -4.2321 C   0  0  0  0  0  0  0  0  0  0  0  0
    0.4364   -0.9894    2.3742 C   0  0  0  0  0  0  0  0  0  0  0  0
  2 14  1  0  0  0  0
  2 15  1  0  0  0  0
  3 16  1  0  0  0  0
  3 20  1  0  0  0  0
  9 21  1  0  0  0  0
 10 22  1  0  0  0  0
 11 23  1  0  0  0  0
 12  1  1  6  0  0  0
 12 13  1  0  0  0  0
 12 14  1  0  0  0  0
 13 15  1  0  0  0  0
 13  4  1  1  0  0  0
 14 21  1  1  0  0  0
 15 22  1  6  0  0  0
 15  5  1  0  0  0  0
 16  1  1  1  0  0  0
 16 17  1  0  0  0  0
 17 18  1  0  0  0  0
 17  6  1  1  0  0  0
 18  7  1  6  0  0  0
 18 19  1  0  0  0  0
 19  8  1  1  0  0  0
 19 20  1  0  0  0  0
 20 23  1  6  0  0  0
M  END
