555
 OpenBabel10141417483D

 16 17  0  0  0  0  0  0  0  0999 V2000
    1.0357   -0.2691   -1.2536 Cl  0  0  0  0  0  0  0  0  0  0  0  0
    2.7723   -2.9445   -0.9390 Cl  0  0  0  0  0  0  0  0  0  0  0  0
    2.9749    3.2164   -0.8300 N   0  0  0  0  0  0  0  0  0  0  0  0
    0.6457    3.7820    0.5576 N   0  0  0  0  0  0  0  0  0  0  0  0
    0.5814    1.6597    1.4780 N   0  0  0  0  0  0  0  0  0  0  0  0
    2.3839    4.4405   -0.9110 N   0  0  0  0  0  0  0  0  0  0  0  0
    0.6779    5.9393   -0.2980 N   0  0  0  0  0  0  0  0  0  0  0  0
    3.1164    0.9868    0.0022 C   0  0  0  0  0  0  0  0  0  0  0  0
    2.3941    2.2629   -0.0719 C   0  0  0  0  0  0  0  0  0  0  0  0
    2.5979   -0.2314   -0.4866 C   0  0  0  0  0  0  0  0  0  0  0  0
    4.4060    0.9790    0.5756 C   0  0  0  0  0  0  0  0  0  0  0  0
    1.2197    2.5670    0.6204 C   0  0  0  0  0  0  0  0  0  0  0  0
    3.3515   -1.4140   -0.3740 C   0  0  0  0  0  0  0  0  0  0  0  0
    5.1497   -0.1961    0.6821 C   0  0  0  0  0  0  0  0  0  0  0  0
    4.6203   -1.3925    0.2109 C   0  0  0  0  0  0  0  0  0  0  0  0
    1.2464    4.6795   -0.2308 C   0  0  0  0  0  0  0  0  0  0  0  0
  1 10  1  0  0  0  0
  2 13  1  0  0  0  0
  3  6  2  0  0  0  0
  3  9  1  0  0  0  0
  4 12  1  0  0  0  0
  4 16  2  0  0  0  0
  5 12  1  0  0  0  0
  6 16  1  0  0  0  0
  7 16  1  0  0  0  0
  8  9  1  0  0  0  0
  8 10  2  0  0  0  0
  8 11  1  0  0  0  0
  9 12  2  0  0  0  0
 10 13  1  0  0  0  0
 11 14  2  0  0  0  0
 13 15  2  0  0  0  0
 14 15  1  0  0  0  0
M  END
