448
 OpenBabel10141417483D

 25 27  0  0  1  0  0  0  0  0999 V2000
    0.9098    0.3568   -0.3629 S   0  0  3  0  0  0  0  0  0  0  0  0
   -6.0499   -1.3496   -2.3498 F   0  0  0  0  0  0  0  0  0  0  0  0
   -6.5081   -3.3264   -3.1463 F   0  0  0  0  0  0  0  0  0  0  0  0
   -7.1319   -2.7956   -1.1292 F   0  0  0  0  0  0  0  0  0  0  0  0
   -3.7856   -2.2505   -1.3779 O   0  0  0  0  0  0  0  0  0  0  0  0
   -0.1233    1.1504   -1.1006 O   0  0  0  0  0  0  0  0  0  0  0  0
    2.5336    2.0686   -1.7400 N   0  0  0  0  0  0  0  0  0  0  0  0
    3.5509    0.2678   -0.9126 N   0  0  0  0  0  0  0  0  0  0  0  0
   -0.0697   -3.2090    0.2226 N   0  0  0  0  0  0  0  0  0  0  0  0
    1.0362   -1.3766   -0.9020 C   0  0  0  0  0  0  0  0  0  0  0  0
   -0.2193   -2.1819   -0.6581 C   0  0  0  0  0  0  0  0  0  0  0  0
   -1.4489   -1.9216   -1.2843 C   0  0  0  0  0  0  0  0  0  0  0  0
    2.4134    0.9012   -1.0217 C   0  0  0  0  0  0  0  0  0  0  0  0
    3.8600    2.2093   -2.0705 C   0  0  0  0  0  0  0  0  0  0  0  0
    4.4651    1.0618   -1.5616 C   0  0  0  0  0  0  0  0  0  0  0  0
   -2.5747   -2.6608   -0.8717 C   0  0  0  0  0  0  0  0  0  0  0  0
   -1.6199   -0.8933   -2.3682 C   0  0  0  0  0  0  0  0  0  0  0  0
    4.5607    3.2095   -2.7452 C   0  0  0  0  0  0  0  0  0  0  0  0
   -2.4223   -3.6880    0.0516 C   0  0  0  0  0  0  0  0  0  0  0  0
    5.8374    0.8678   -1.7462 C   0  0  0  0  0  0  0  0  0  0  0  0
   -1.1553   -3.9409    0.5398 C   0  0  0  0  0  0  0  0  0  0  0  0
    5.9388    3.0076   -2.8983 C   0  0  0  0  0  0  0  0  0  0  0  0
    6.5672    1.8569   -2.4143 C   0  0  0  0  0  0  0  0  0  0  0  0
   -4.8236   -3.2335   -1.4736 C   0  0  0  0  0  0  0  0  0  0  0  0
   -6.1281   -2.6579   -2.0306 C   0  0  0  0  0  0  0  0  0  0  0  0
  1  6  2  0  0  0  0
  1 10  1  0  0  0  0
  1 13  1  0  0  0  0
  2 25  1  0  0  0  0
  3 25  1  0  0  0  0
  4 25  1  0  0  0  0
  5 16  1  0  0  0  0
  5 24  1  0  0  0  0
  7 13  1  0  0  0  0
  7 14  1  0  0  0  0
  8 13  2  0  0  0  0
  8 15  1  0  0  0  0
  9 11  2  0  0  0  0
  9 21  1  0  0  0  0
 10 11  1  0  0  0  0
 11 12  1  0  0  0  0
 12 16  2  0  0  0  0
 12 17  1  0  0  0  0
 14 15  1  0  0  0  0
 14 18  2  0  0  0  0
 15 20  2  0  0  0  0
 16 19  1  0  0  0  0
 18 22  1  0  0  0  0
 19 21  2  0  0  0  0
 20 23  1  0  0  0  0
 22 23  2  0  0  0  0
 24 25  1  0  0  0  0
M  END
