1259
 OpenBabel10141417543D

 40 44  0  0  0  0  0  0  0  0999 V2000
    2.3526   -4.2619    4.8553 Cl  0  0  0  0  0  0  0  0  0  0  0  0
    4.5853  -17.1912   -4.7527 S   0  0  0  0  0  0  0  0  0  0  0  0
    5.4606   -9.3285    3.8049 F   0  0  0  0  0  0  0  0  0  0  0  0
    5.1866  -10.7597   -4.1614 O   0  0  0  0  0  0  0  0  0  0  0  0
    5.8869  -17.6427   -4.4089 O   0  0  0  0  0  0  0  0  0  0  0  0
    3.5660  -16.9387   -3.6970 O   0  0  0  0  0  0  0  0  0  0  0  0
    4.8746   -5.1163    6.2864 O   0  0  0  0  0  0  0  0  0  0  0  0
    5.5965  -13.4493   -6.0680 N   0  0  0  0  0  0  0  0  0  0  0  0
    4.5940   -6.9374    1.0595 N   0  0  0  0  0  0  0  0  0  0  0  0
    2.0579   -5.7031   -1.9178 N   0  0  0  0  0  0  0  0  0  0  0  0
    3.2346   -5.3182    0.0803 N   0  0  0  0  0  0  0  0  0  0  0  0
    5.5120  -14.6170   -5.1686 C   0  0  0  0  0  0  0  0  0  0  0  0
    4.6798  -15.7285   -5.7928 C   0  0  0  0  0  0  0  0  0  0  0  0
    6.4176  -12.3472   -5.5346 C   0  0  0  0  0  0  0  0  0  0  0  0
    5.9950  -11.8605   -4.1916 C   0  0  0  0  0  0  0  0  0  0  0  0
    4.1559   -9.2700   -2.5812 C   0  0  0  0  0  0  0  0  0  0  0  0
    4.9540  -10.4610   -2.8485 C   0  0  0  0  0  0  0  0  0  0  0  0
    3.6746   -7.3258   -1.1564 C   0  0  0  0  0  0  0  0  0  0  0  0
    4.3605   -8.5479   -1.4040 C   0  0  0  0  0  0  0  0  0  0  0  0
    6.2603  -12.2860   -2.9062 C   0  0  0  0  0  0  0  0  0  0  0  0
    5.6119  -11.3721   -2.0445 C   0  0  0  0  0  0  0  0  0  0  0  0
    2.7340   -6.8490   -2.0724 C   0  0  0  0  0  0  0  0  0  0  0  0
    3.1832   -8.8016   -3.4643 C   0  0  0  0  0  0  0  0  0  0  0  0
    3.8508   -6.5070   -0.0410 C   0  0  0  0  0  0  0  0  0  0  0  0
    3.8852  -18.3760   -5.8733 C   0  0  0  0  0  0  0  0  0  0  0  0
    2.4790   -7.6182   -3.1927 C   0  0  0  0  0  0  0  0  0  0  0  0
    4.6699   -6.2920    2.2945 C   0  0  0  0  0  0  0  0  0  0  0  0
    2.3502   -4.9795   -0.8419 C   0  0  0  0  0  0  0  0  0  0  0  0
    3.6397   -5.5467    2.8746 C   0  0  0  0  0  0  0  0  0  0  0  0
    5.8756   -6.2637    2.9404 C   0  0  0  0  0  0  0  0  0  0  0  0
    4.8704   -5.2740    4.9239 C   0  0  0  0  0  0  0  0  0  0  0  0
    3.7135   -5.0820    4.1944 C   0  0  0  0  0  0  0  0  0  0  0  0
    5.9824   -5.6261    4.1755 C   0  0  0  0  0  0  0  0  0  0  0  0
    5.6464   -6.0025    7.1626 C   0  0  0  0  0  0  0  0  0  0  0  0
    6.4344   -7.1308    6.5012 C   0  0  0  0  0  0  0  0  0  0  0  0
    5.6933   -8.1060    5.8004 C   0  0  0  0  0  0  0  0  0  0  0  0
    7.8029   -6.9307    6.2023 C   0  0  0  0  0  0  0  0  0  0  0  0
    6.2681   -8.7299    4.6958 C   0  0  0  0  0  0  0  0  0  0  0  0
    8.3628   -7.5665    5.0825 C   0  0  0  0  0  0  0  0  0  0  0  0
    7.5883   -8.4548    4.3247 C   0  0  0  0  0  0  0  0  0  0  0  0
  1 32  1  0  0  0  0
  2  5  2  0  0  0  0
  2  6  2  0  0  0  0
  2 13  1  0  0  0  0
  2 25  1  0  0  0  0
  3 38  1  0  0  0  0
  4 15  1  0  0  0  0
  4 17  1  0  0  0  0
  7 31  1  0  0  0  0
  7 34  1  0  0  0  0
  8 12  1  0  0  0  0
  8 14  1  0  0  0  0
  9 24  1  0  0  0  0
  9 27  1  0  0  0  0
 10 22  1  0  0  0  0
 10 28  2  0  0  0  0
 11 24  2  0  0  0  0
 11 28  1  0  0  0  0
 12 13  1  0  0  0  0
 14 15  1  0  0  0  0
 15 20  2  0  0  0  0
 16 17  1  0  0  0  0
 16 19  2  0  0  0  0
 16 23  1  0  0  0  0
 17 21  2  0  0  0  0
 18 19  1  0  0  0  0
 18 22  2  0  0  0  0
 18 24  1  0  0  0  0
 20 21  1  0  0  0  0
 22 26  1  0  0  0  0
 23 26  2  0  0  0  0
 27 29  2  0  0  0  0
 27 30  1  0  0  0  0
 29 32  1  0  0  0  0
 30 33  2  0  0  0  0
 31 32  2  0  0  0  0
 31 33  1  0  0  0  0
 34 35  1  0  0  0  0
 35 36  2  0  0  0  0
 35 37  1  0  0  0  0
 36 38  1  0  0  0  0
 37 39  2  0  0  0  0
 38 40  2  0  0  0  0
 39 40  1  0  0  0  0
M  END
