4570
 OpenBabel10141417543D

 36 39  0  0  1  0  0  0  0  0999 V2000
  -17.9241  -10.9251   -6.5761 S   0  0  0  0  0  0  0  0  0  0  0  0
  -15.3963   -7.4383   -5.2124 O   0  0  0  0  0  0  0  0  0  0  0  0
  -16.2115   -3.7495   -4.4266 O   0  0  0  0  0  0  0  0  0  0  0  0
  -18.8443   -5.8527   -4.0395 O   0  0  0  0  0  0  0  0  0  0  0  0
  -19.6950   -5.9588   -7.0041 O   0  0  0  0  0  0  0  0  0  0  0  0
  -13.7709   -6.3649   -3.5513 O   0  0  0  0  0  0  0  0  0  0  0  0
  -19.8673   -8.1334   -7.4726 O   0  0  0  0  0  0  0  0  0  0  0  0
  -14.5135   -7.8392    0.7431 O   0  0  0  0  0  0  0  0  0  0  0  0
  -15.7428   -8.3338   -1.0720 O   0  0  0  0  0  0  0  0  0  0  0  0
  -14.1263   -1.5407    1.6428 O   0  0  0  0  0  0  0  0  0  0  0  0
  -17.3324   -6.1707   -5.8315 N   0  0  0  0  0  0  0  0  0  0  0  0
  -15.8453   -5.6440   -2.8911 N   0  0  0  0  0  0  0  0  0  0  0  0
  -18.1692  -13.5025   -7.4916 N   0  0  0  0  0  0  0  0  0  0  0  0
  -18.6275  -12.0019   -8.9945 N   0  0  0  0  0  0  0  0  0  0  0  0
  -18.4996  -14.1930   -8.5991 N   0  0  0  0  0  0  0  0  0  0  0  0
  -18.7933  -13.2709   -9.5058 N   0  0  0  0  0  0  0  0  0  0  0  0
  -16.3085   -5.1976   -4.2451 C   0  0  2  0  0  0  0  0  0  0  0  0
  -15.9230   -6.1284   -5.4710 C   0  0  1  0  0  0  0  0  0  0  0  0
  -17.7736   -5.7447   -4.6120 C   0  0  0  0  0  0  0  0  0  0  0  0
  -17.7954   -7.2835   -6.5277 C   0  0  0  0  0  0  0  0  0  0  0  0
  -16.9815   -8.3312   -6.7922 C   0  0  0  0  0  0  0  0  0  0  0  0
  -15.5555   -8.3370   -6.2884 C   0  0  0  0  0  0  0  0  0  0  0  0
  -14.6067   -6.2039   -2.6597 C   0  0  0  0  0  0  0  0  0  0  0  0
  -17.3047   -9.5653   -7.6207 C   0  0  0  0  0  0  0  0  0  0  0  0
  -19.2043   -7.2142   -7.0296 C   0  0  0  0  0  0  0  0  0  0  0  0
  -14.9366   -3.2292   -4.7773 C   0  0  0  0  0  0  0  0  0  0  0  0
  -14.2090   -6.4492   -1.2093 C   0  0  3  0  0  0  0  0  0  0  0  0
  -14.2263   -5.1396   -0.4278 C   0  0  0  0  0  0  0  0  0  0  0  0
  -14.9063   -7.6177   -0.5435 C   0  0  0  0  0  0  0  0  0  0  0  0
  -15.0566   -4.9419    0.6868 C   0  0  0  0  0  0  0  0  0  0  0  0
  -13.4024   -4.0808   -0.8522 C   0  0  0  0  0  0  0  0  0  0  0  0
  -18.2429  -12.1610   -7.7484 C   0  0  0  0  0  0  0  0  0  0  0  0
  -15.0203   -3.7475    1.3992 C   0  0  0  0  0  0  0  0  0  0  0  0
  -13.3919   -2.8734   -0.1567 C   0  0  0  0  0  0  0  0  0  0  0  0
  -14.1870   -2.7235    0.9715 C   0  0  0  0  0  0  0  0  0  0  0  0
  -17.8336  -14.1999   -6.2824 C   0  0  0  0  0  0  0  0  0  0  0  0
  1 24  1  0  0  0  0
  1 32  1  0  0  0  0
  2 22  1  0  0  0  0
  3 26  1  0  0  0  0
  4 19  2  0  0  0  0
  5 25  1  0  0  0  0
  6 23  2  0  0  0  0
  7 25  2  0  0  0  0
  8 29  1  0  0  0  0
  9 29  2  0  0  0  0
 10 35  1  0  0  0  0
 11 18  1  0  0  0  0
 11 19  1  0  0  0  0
 11 20  1  0  0  0  0
 12 23  1  0  0  0  0
 13 15  1  0  0  0  0
 13 32  1  0  0  0  0
 13 36  1  0  0  0  0
 14 16  1  0  0  0  0
 14 32  2  0  0  0  0
 15 16  2  0  0  0  0
 17 18  1  0  0  0  0
 17 19  1  0  0  0  0
 17  3  1  6  0  0  0
 17 12  1  0  0  0  0
 18  2  1  1  0  0  0
 20 21  2  0  0  0  0
 20 25  1  0  0  0  0
 21 22  1  0  0  0  0
 21 24  1  0  0  0  0
 23 27  1  0  0  0  0
 27 28  1  0  0  0  0
 27 29  1  0  0  0  0
 28 30  2  0  0  0  0
 28 31  1  0  0  0  0
 30 33  1  0  0  0  0
 31 34  2  0  0  0  0
 33 35  2  0  0  0  0
 34 35  1  0  0  0  0
M  END
