1097
 OpenBabel10141417483D

 19 20  0  0  0  0  0  0  0  0999 V2000
   -0.7939    1.9293   -1.4320 F   0  0  0  0  0  0  0  0  0  0  0  0
   -1.4716    3.3215    0.0931 F   0  0  0  0  0  0  0  0  0  0  0  0
   -0.8811    1.3027    0.6470 F   0  0  0  0  0  0  0  0  0  0  0  0
    9.3555    5.1188    0.4675 O   0  0  0  0  0  0  0  0  0  0  0  0
    5.8565    3.7405   -1.3598 O   0  0  0  0  0  0  0  0  0  0  0  0
    4.8591    4.1053    0.7052 N   0  0  0  0  0  0  0  0  0  0  0  0
    8.8242    5.3992    1.7122 N   0  0  0  0  0  0  0  0  0  0  0  0
    3.5337    3.6812    0.4490 C   0  0  0  0  0  0  0  0  0  0  0  0
    0.8647    2.8225    0.0597 C   0  0  0  0  0  0  0  0  0  0  0  0
    7.1812    4.5817    0.3489 C   0  0  0  0  0  0  0  0  0  0  0  0
    3.1020    3.2264   -0.7976 C   0  0  0  0  0  0  0  0  0  0  0  0
    2.6121    3.7155    1.5040 C   0  0  0  0  0  0  0  0  0  0  0  0
    1.7866    2.8023   -0.9909 C   0  0  0  0  0  0  0  0  0  0  0  0
    1.2892    3.2880    1.3127 C   0  0  0  0  0  0  0  0  0  0  0  0
    5.9181    4.1075   -0.1913 C   0  0  0  0  0  0  0  0  0  0  0  0
    8.3759    4.6417   -0.3462 C   0  0  0  0  0  0  0  0  0  0  0  0
   -0.5518    2.3499   -0.1583 C   0  0  0  0  0  0  0  0  0  0  0  0
    7.5319    5.0816    1.6216 C   0  0  0  0  0  0  0  0  0  0  0  0
    8.7865    4.3118   -1.7282 C   0  0  0  0  0  0  0  0  0  0  0  0
  1 17  1  0  0  0  0
  2 17  1  0  0  0  0
  3 17  1  0  0  0  0
  4  7  1  0  0  0  0
  4 16  1  0  0  0  0
  5 15  2  0  0  0  0
  6  8  1  0  0  0  0
  6 15  1  0  0  0  0
  7 18  2  0  0  0  0
  8 11  2  0  0  0  0
  8 12  1  0  0  0  0
  9 13  2  0  0  0  0
  9 14  1  0  0  0  0
  9 17  1  0  0  0  0
 10 15  1  0  0  0  0
 10 16  2  0  0  0  0
 10 18  1  0  0  0  0
 11 13  1  0  0  0  0
 12 14  2  0  0  0  0
 16 19  1  0  0  0  0
M  END
