528
 OpenBabel10141417543D

 45 48  0  0  1  0  0  0  0  0999 V2000
    1.4466   -0.9909   -0.5965 O   0  0  0  0  0  0  0  0  0  0  0  0
    2.8454   -2.3452   -1.7728 O   0  0  0  0  0  0  0  0  0  0  0  0
    7.5913   -1.9200   -1.1936 O   0  0  0  0  0  0  0  0  0  0  0  0
    8.6882   -0.5592    0.2857 O   0  0  0  0  0  0  0  0  0  0  0  0
    4.2792   -2.3407   -5.6461 O   0  5  0  0  0  0  0  0  0  0  0  0
    4.7285   -0.5695   -6.8572 O   0  0  0  0  0  0  0  0  0  0  0  0
   -0.4806    0.3326   -3.5501 N   0  0  0  0  0  0  0  0  0  0  0  0
    4.6772    0.4519    1.5972 N   0  0  0  0  0  0  0  0  0  0  0  0
    4.6664   -1.1715   -5.7746 N   0  3  0  0  0  0  0  0  0  0  0  0
    0.3078   -1.1038   -1.5050 C   0  0  0  0  0  0  0  0  0  0  0  0
    0.6241   -0.1696   -2.7171 C   0  0  0  0  0  0  0  0  0  0  0  0
    0.0351    1.2387   -4.5888 C   0  0  0  0  0  0  0  0  0  0  0  0
   -1.0353    1.9141   -5.4697 C   0  0  0  0  0  0  0  0  0  0  0  0
   -2.0021    2.8320   -4.6721 C   0  0  0  0  0  0  0  0  0  0  0  0
    5.1405   -1.0306   -0.7525 C   0  0  3  0  0  0  0  0  0  0  0  0
    0.0226   -2.5677   -1.8758 C   0  0  0  0  0  0  0  0  0  0  0  0
   -0.8639   -0.5651   -0.6691 C   0  0  0  0  0  0  0  0  0  0  0  0
    3.7398   -0.8278   -0.1603 C   0  0  0  0  0  0  0  0  0  0  0  0
   -1.2735   -0.7523   -4.1139 C   0  0  0  0  0  0  0  0  0  0  0  0
   -2.6440    3.8514   -5.6232 C   0  0  0  0  0  0  0  0  0  0  0  0
   -2.9948    2.0895   -3.7660 C   0  0  0  0  0  0  0  0  0  0  0  0
    6.2746   -0.6023    0.2039 C   0  0  0  0  0  0  0  0  0  0  0  0
    2.6497   -1.5147   -0.9232 C   0  0  0  0  0  0  0  0  0  0  0  0
    3.5766   -0.1064    0.9712 C   0  0  0  0  0  0  0  0  0  0  0  0
    5.2777   -0.3492   -2.1353 C   0  0  0  0  0  0  0  0  0  0  0  0
    5.9962    0.1412    1.3040 C   0  0  0  0  0  0  0  0  0  0  0  0
   -3.8539    3.6300   -6.2989 C   0  0  0  0  0  0  0  0  0  0  0  0
   -3.8667    1.1123   -4.2769 C   0  0  0  0  0  0  0  0  0  0  0  0
   -1.9697    5.0591   -5.8763 C   0  0  0  0  0  0  0  0  0  0  0  0
   -3.0074    2.3053   -2.3768 C   0  0  0  0  0  0  0  0  0  0  0  0
    2.2624    0.1224    1.6813 C   0  0  0  0  0  0  0  0  0  0  0  0
    4.9986   -1.0691   -3.3138 C   0  0  0  0  0  0  0  0  0  0  0  0
    5.6638    0.9975   -2.2593 C   0  0  0  0  0  0  0  0  0  0  0  0
    7.6561   -1.0062   -0.1919 C   0  0  0  0  0  0  0  0  0  0  0  0
    6.9922    0.6764    2.3083 C   0  0  0  0  0  0  0  0  0  0  0  0
    5.0644   -0.4393   -4.5653 C   0  0  0  0  0  0  0  0  0  0  0  0
   -4.4120    4.6038   -7.1285 C   0  0  0  0  0  0  0  0  0  0  0  0
   -4.7155    0.3771   -3.4501 C   0  0  0  0  0  0  0  0  0  0  0  0
   -2.5136    6.0235   -6.7289 C   0  0  0  0  0  0  0  0  0  0  0  0
   -3.8663    1.5741   -1.5448 C   0  0  0  0  0  0  0  0  0  0  0  0
    5.7816    1.6052   -3.5131 C   0  0  0  0  0  0  0  0  0  0  0  0
   -3.7449    5.8038   -7.3388 C   0  0  0  0  0  0  0  0  0  0  0  0
   -4.7208    0.6132   -2.0822 C   0  0  0  0  0  0  0  0  0  0  0  0
    5.4722    0.8941   -4.6703 C   0  0  0  0  0  0  0  0  0  0  0  0
    8.8343   -2.2582   -1.8049 C   0  0  0  0  0  0  0  0  0  0  0  0
  1 10  1  0  0  0  0
  1 23  1  0  0  0  0
  2 23  2  0  0  0  0
  3 34  1  0  0  0  0
  3 45  1  0  0  0  0
  4 34  2  0  0  0  0
  5  9  1  0  0  0  0
  6  9  2  0  0  0  0
  7 11  1  0  0  0  0
  7 12  1  0  0  0  0
  7 19  1  0  0  0  0
  8 24  1  0  0  0  0
  8 26  1  0  0  0  0
  9 36  1  0  0  0  0
 10 11  1  0  0  0  0
 10 16  1  0  0  0  0
 10 17  1  0  0  0  0
 12 13  1  0  0  0  0
 13 14  1  0  0  0  0
 14 20  1  0  0  0  0
 14 21  1  0  0  0  0
 15 18  1  0  0  0  0
 15 22  1  0  0  0  0
 15 25  1  0  0  0  0
 18 23  1  0  0  0  0
 18 24  2  0  0  0  0
 20 27  2  0  0  0  0
 20 29  1  0  0  0  0
 21 28  2  0  0  0  0
 21 30  1  0  0  0  0
 22 26  2  0  0  0  0
 22 34  1  0  0  0  0
 24 31  1  0  0  0  0
 25 32  2  0  0  0  0
 25 33  1  0  0  0  0
 26 35  1  0  0  0  0
 27 37  1  0  0  0  0
 28 38  1  0  0  0  0
 29 39  2  0  0  0  0
 30 40  2  0  0  0  0
 32 36  1  0  0  0  0
 33 41  2  0  0  0  0
 36 44  2  0  0  0  0
 37 42  2  0  0  0  0
 38 43  2  0  0  0  0
 39 42  1  0  0  0  0
 40 43  1  0  0  0  0
 41 44  1  0  0  0  0
M  CHG  2   5  -1   9   1
M  END
