1006
 OpenBabel10141418203D

 22 24  0  0  0  0  0  0  0  0999 V2000
   -0.7862   -0.2372    1.6968 N   0  0  0  0  0  0  0  0  0  0  0  0
   -0.2299   -0.0274    0.4799 N   0  0  0  0  0  0  0  0  0  0  0  0
    0.5977    1.4279    2.0300 N   0  0  0  0  0  0  0  0  0  0  0  0
    0.2585   -5.3605    7.1926 N   0  0  0  0  0  0  0  0  0  0  0  0
   -8.2866    1.2317    1.9422 N   0  0  0  0  0  0  0  0  0  0  0  0
   -1.7833   -1.3011    1.9039 C   0  0  0  0  0  0  0  0  0  0  0  0
   -1.3709   -2.2267    3.0640 C   0  0  0  0  0  0  0  0  0  0  0  0
   -3.2096   -0.7155    1.9303 C   0  0  0  0  0  0  0  0  0  0  0  0
   -2.1499   -2.3844    4.2212 C   0  0  0  0  0  0  0  0  0  0  0  0
   -4.1680   -1.1721    1.0041 C   0  0  0  0  0  0  0  0  0  0  0  0
   -0.1575   -2.9485    2.9947 C   0  0  0  0  0  0  0  0  0  0  0  0
   -3.6155    0.2710    2.8510 C   0  0  0  0  0  0  0  0  0  0  0  0
   -0.2560    0.6211    2.6151 C   0  0  0  0  0  0  0  0  0  0  0  0
   -1.7282   -3.1984    5.2793 C   0  0  0  0  0  0  0  0  0  0  0  0
   -5.4795   -0.6739    1.0072 C   0  0  0  0  0  0  0  0  0  0  0  0
    0.2694   -3.7590    4.0580 C   0  0  0  0  0  0  0  0  0  0  0  0
   -4.9251    0.7719    2.8515 C   0  0  0  0  0  0  0  0  0  0  0  0
   -0.5145   -3.8822    5.2063 C   0  0  0  0  0  0  0  0  0  0  0  0
   -5.8629    0.3002    1.9312 C   0  0  0  0  0  0  0  0  0  0  0  0
    0.5828    1.0024    0.7336 C   0  0  0  0  0  0  0  0  0  0  0  0
   -0.0831   -4.7024    6.3034 C   0  0  0  0  0  0  0  0  0  0  0  0
   -7.2025    0.8151    1.9338 C   0  0  0  0  0  0  0  0  0  0  0  0
  1  2  1  0  0  0  0
  1  6  1  0  0  0  0
  1 13  1  0  0  0  0
  2 20  2  0  0  0  0
  3 13  2  0  0  0  0
  3 20  1  0  0  0  0
  4 21  3  0  0  0  0
  5 22  3  0  0  0  0
  6  7  1  0  0  0  0
  6  8  1  0  0  0  0
  7  9  2  0  0  0  0
  7 11  1  0  0  0  0
  8 10  2  0  0  0  0
  8 12  1  0  0  0  0
  9 14  1  0  0  0  0
 10 15  1  0  0  0  0
 11 16  2  0  0  0  0
 12 17  2  0  0  0  0
 14 18  2  0  0  0  0
 15 19  2  0  0  0  0
 16 18  1  0  0  0  0
 17 19  1  0  0  0  0
 18 21  1  0  0  0  0
 19 22  1  0  0  0  0
M  END
