1202
 OpenBabel10141417513D

 12 12  0  0  1  0  0  0  0  0999 V2000
    2.1345   -3.2642   -3.6592 O   0  0  0  0  0  0  0  0  0  0  0  0
    5.1838   -3.2359    0.3157 O   0  0  0  0  0  0  0  0  0  0  0  0
    3.7382   -1.9460   -2.6080 N   0  0  0  0  0  0  0  0  0  0  0  0
    4.7635   -4.4269   -1.5458 N   0  0  0  0  0  0  0  0  0  0  0  0
    4.9350   -1.2494   -3.0171 C   0  0  0  0  0  0  0  0  0  0  0  0
    3.4842   -2.3459   -1.2182 C   0  0  2  0  0  0  0  0  0  0  0  0
    4.6001   -0.8101   -4.4275 C   0  0  0  0  0  0  0  0  0  0  0  0
    3.7049   -1.9286   -4.9492 C   0  0  0  0  0  0  0  0  0  0  0  0
    3.0560   -2.4620   -3.6961 C   0  0  0  0  0  0  0  0  0  0  0  0
    3.3670   -1.1388   -0.2769 C   0  0  0  0  0  0  0  0  0  0  0  0
    4.5674   -3.3379   -0.7407 C   0  0  0  0  0  0  0  0  0  0  0  0
    2.2782   -0.1600   -0.6997 C   0  0  0  0  0  0  0  0  0  0  0  0
  1  9  2  0  0  0  0
  2 11  2  0  0  0  0
  3  5  1  0  0  0  0
  3  9  1  0  0  0  0
  4 11  1  0  0  0  0
  5  7  1  0  0  0  0
  6 11  1  1  0  0  0
  6 10  1  0  0  0  0
  6  3  1  0  0  0  0
  7  8  1  0  0  0  0
  8  9  1  0  0  0  0
 10 12  1  0  0  0  0
M  END
