
 OpenBabel10141417523D

 18 19  0  0  1  0  0  0  0  0999 V2000
   -1.7767   -0.2741   -0.0229 C   0  0  0  0  0  0  0  0  0  0  0  0
   -1.2980    1.0053    0.2374 C   0  0  0  0  0  0  0  0  0  0  0  0
    0.0811    1.2334    0.3248 C   0  0  0  0  0  0  0  0  0  0  0  0
    1.0187    0.1906    0.1792 C   0  0  0  0  0  0  0  0  0  0  0  0
    0.4980   -1.0897   -0.0757 C   0  0  0  0  0  0  0  0  0  0  0  0
   -0.8775   -1.3217   -0.1856 C   0  0  0  0  0  0  0  0  0  0  0  0
    3.2774    0.8086   -0.9561 C   0  0  0  0  0  0  0  0  0  0  0  0
    3.3026   -0.2780    1.4426 C   0  0  0  0  0  0  0  0  0  0  0  0
    2.9245    1.1473    1.6590 C   0  0  2  0  0  0  0  0  0  0  0  0
    2.5392    0.4391    0.3285 C   0  0  2  0  0  0  0  0  0  0  0  0
    4.0069    2.1740    1.7750 C   0  0  0  0  0  0  0  0  0  0  0  0
    3.3371    1.9886   -1.2731 O   0  0  0  0  0  0  0  0  0  0  0  0
    3.8350   -0.2193   -1.7489 N   0  0  0  0  0  0  0  0  0  0  0  0
    4.5173    0.1735   -2.9889 C   0  0  0  0  0  0  0  0  0  0  0  0
    3.8926   -1.6346   -1.3751 C   0  0  0  0  0  0  0  0  0  0  0  0
    3.1768   -2.5628   -2.3472 C   0  0  0  0  0  0  0  0  0  0  0  0
    5.9996    0.4622   -2.7998 C   0  0  0  0  0  0  0  0  0  0  0  0
    4.0863    2.5757    3.1779 N   0  0  0  0  0  0  0  0  0  0  0  0
  1  2  2  0  0  0  0
  2  3  1  0  0  0  0
  3  4  2  0  0  0  0
  4  5  1  0  0  0  0
  5  6  2  0  0  0  0
  6  1  1  0  0  0  0
  7 12  2  0  0  0  0
  7 13  1  0  0  0  0
  8 10  1  0  0  0  0
  8  9  1  0  0  0  0
  9 11  1  6  0  0  0
 10  9  1  0  0  0  0
 10  4  1  6  0  0  0
 10  7  1  0  0  0  0
 11 18  1  0  0  0  0
 13 14  1  0  0  0  0
 13 15  1  0  0  0  0
 14 17  1  0  0  0  0
 15 16  1  0  0  0  0
M  END
