1137
 OpenBabel10141417523D

 26 29  0  0  1  0  0  0  0  0999 V2000
    1.0374   -0.3362   -0.0912 F   0  0  0  0  0  0  0  0  0  0  0  0
    5.0597    2.2623   -0.1796 O   0  0  0  0  0  0  0  0  0  0  0  0
    4.6520   -3.7214    0.3909 O   0  0  0  0  0  0  0  0  0  0  0  0
    6.8963   -4.9533    0.4437 O   0  0  0  0  0  0  0  0  0  0  0  0
    8.7876   -3.7365    0.3152 O   0  0  0  0  0  0  0  0  0  0  0  0
    2.2999    2.2522   -0.3175 N   0  0  0  0  0  0  0  0  0  0  0  0
    6.5878   -0.1742    0.0630 N   0  0  0  0  0  0  0  0  0  0  0  0
    0.2320    4.3557    0.0535 N   0  0  0  0  0  0  0  0  0  0  0  0
    1.0185    2.2001   -1.0550 C   0  0  0  0  0  0  0  0  0  0  0  0
    2.2177    3.0024    0.9577 C   0  0  0  0  0  0  0  0  0  0  0  0
    7.2384    1.1243   -0.1781 C   0  0  2  0  0  0  0  0  0  0  0  0
    3.0063    1.0305   -0.1700 C   0  0  0  0  0  0  0  0  0  0  0  0
    5.1727   -0.1610    0.0385 C   0  0  0  0  0  0  0  0  0  0  0  0
    4.4255    1.0353   -0.0845 C   0  0  0  0  0  0  0  0  0  0  0  0
    0.4113    3.6133   -1.2156 C   0  0  0  0  0  0  0  0  0  0  0  0
    1.5327    4.3793    0.7603 C   0  0  0  0  0  0  0  0  0  0  0  0
    6.3682    2.2447    0.3979 C   0  0  0  0  0  0  0  0  0  0  0  0
    4.4747   -1.3750    0.1309 C   0  0  0  0  0  0  0  0  0  0  0  0
    2.3740   -0.2270   -0.0755 C   0  0  0  0  0  0  0  0  0  0  0  0
    7.2690   -1.3755    0.1493 C   0  0  0  0  0  0  0  0  0  0  0  0
    3.0851   -1.4115    0.0799 C   0  0  0  0  0  0  0  0  0  0  0  0
    7.5064    1.3115   -1.6732 C   0  0  0  0  0  0  0  0  0  0  0  0
    5.2287   -2.6415    0.2728 C   0  0  0  0  0  0  0  0  0  0  0  0
   -0.8175    3.7632    0.8829 C   0  0  0  0  0  0  0  0  0  0  0  0
    6.7060   -2.5883    0.2590 C   0  0  0  0  0  0  0  0  0  0  0  0
    7.5681   -3.7855    0.3404 C   0  0  0  0  0  0  0  0  0  0  0  0
  1 19  1  0  0  0  0
  2 14  1  0  0  0  0
  2 17  1  0  0  0  0
  3 23  2  0  0  0  0
  4 26  1  0  0  0  0
  5 26  2  0  0  0  0
  6  9  1  0  0  0  0
  6 10  1  0  0  0  0
  6 12  1  0  0  0  0
  7 11  1  0  0  0  0
  7 13  1  0  0  0  0
  7 20  1  0  0  0  0
  8 15  1  0  0  0  0
  8 16  1  0  0  0  0
  8 24  1  0  0  0  0
  9 15  1  0  0  0  0
 10 16  1  0  0  0  0
 11 17  1  0  0  0  0
 11 22  1  6  0  0  0
 12 14  1  0  0  0  0
 12 19  2  0  0  0  0
 13 14  2  0  0  0  0
 13 18  1  0  0  0  0
 18 21  2  0  0  0  0
 18 23  1  0  0  0  0
 19 21  1  0  0  0  0
 20 25  2  0  0  0  0
 23 25  1  0  0  0  0
 25 26  1  0  0  0  0
M  END
