1106
 OpenBabel10141417513D

 31 34  0  0  1  0  0  0  0  0999 V2000
    2.8970    0.6445    7.4984 F   0  0  0  0  0  0  0  0  0  0  0  0
    8.5534   -2.0840   -2.4470 O   0  0  0  0  0  0  0  0  0  0  0  0
   10.3203   -1.7553   -3.7356 O   0  0  0  0  0  0  0  0  0  0  0  0
    9.4703   -0.1772    1.4405 N   0  0  3  0  0  0  0  0  0  0  0  0
    9.7505    1.2081    6.4247 N   0  0  0  0  0  0  0  0  0  0  0  0
    8.0373   -0.4418    1.7183 C   0  0  3  0  0  0  0  0  0  0  0  0
   10.4350   -0.9804   -1.3616 C   0  0  2  0  0  0  0  0  0  0  0  0
    9.5486    0.2892   -1.0542 C   0  0  1  0  0  0  0  0  0  0  0  0
    9.7300    0.8182    0.3811 C   0  0  0  0  0  0  0  0  0  0  0  0
   10.1757   -1.9821   -0.1832 C   0  0  0  0  0  0  0  0  0  0  0  0
   10.3202   -1.3488    1.2067 C   0  0  0  0  0  0  0  0  0  0  0  0
    7.3076    0.8350    2.1949 C   0  0  0  0  0  0  0  0  0  0  0  0
    7.7770   -1.4742    2.8432 C   0  0  0  0  0  0  0  0  0  0  0  0
    7.8713    0.4319    4.6670 C   0  0  3  0  0  0  0  0  0  0  0  0
    7.9415    1.3960    3.4763 C   0  0  0  0  0  0  0  0  0  0  0  0
    8.2985   -1.0305    4.2166 C   0  0  0  0  0  0  0  0  0  0  0  0
   11.9661   -0.7097   -1.5739 C   0  0  0  0  0  0  0  0  0  0  0  0
    9.6478    1.4484   -2.0524 C   0  0  0  0  0  0  0  0  0  0  0  0
    9.8228   -1.6437   -2.6265 C   0  0  0  0  0  0  0  0  0  0  0  0
    6.4942    0.4208    5.3992 C   0  0  0  0  0  0  0  0  0  0  0  0
    8.9225    0.8721    5.6692 C   0  0  0  0  0  0  0  0  0  0  0  0
   12.9670   -1.3197   -0.7864 C   0  0  0  0  0  0  0  0  0  0  0  0
   12.4404    0.1087   -2.6200 C   0  0  0  0  0  0  0  0  0  0  0  0
    6.2570   -0.3817    6.5396 C   0  0  0  0  0  0  0  0  0  0  0  0
    5.4526    1.2941    5.0146 C   0  0  0  0  0  0  0  0  0  0  0  0
   14.3353   -1.0827   -0.9835 C   0  0  0  0  0  0  0  0  0  0  0  0
   13.8099    0.3545   -2.8187 C   0  0  0  0  0  0  0  0  0  0  0  0
   14.7583   -0.2339   -1.9933 C   0  0  0  0  0  0  0  0  0  0  0  0
    5.0429   -0.3112    7.2404 C   0  0  0  0  0  0  0  0  0  0  0  0
    4.2481    1.3715    5.7185 C   0  0  0  0  0  0  0  0  0  0  0  0
    4.0521    0.5674    6.8253 C   0  0  0  0  0  0  0  0  0  0  0  0
  1 31  1  0  0  0  0
  2 19  1  0  0  0  0
  3 19  2  0  0  0  0
  4  6  1  0  0  0  0
  4  9  1  0  0  0  0
  4 11  1  0  0  0  0
  5 21  3  0  0  0  0
  6 12  1  0  0  0  0
  6 13  1  0  0  0  0
  7  8  1  0  0  0  0
  7 10  1  0  0  0  0
  7 19  1  6  0  0  0
  7 17  1  0  0  0  0
  8  9  1  0  0  0  0
  8 18  1  6  0  0  0
 10 11  1  0  0  0  0
 12 15  1  0  0  0  0
 13 16  1  0  0  0  0
 14 15  1  0  0  0  0
 14 16  1  0  0  0  0
 14 20  1  0  0  0  0
 14 21  1  0  0  0  0
 17 22  2  0  0  0  0
 17 23  1  0  0  0  0
 20 24  2  0  0  0  0
 20 25  1  0  0  0  0
 22 26  1  0  0  0  0
 23 27  2  0  0  0  0
 24 29  1  0  0  0  0
 25 30  2  0  0  0  0
 26 28  2  0  0  0  0
 27 28  1  0  0  0  0
 29 31  2  0  0  0  0
 30 31  1  0  0  0  0
M  END
