1227
 OpenBabel10141417503D

 26 27  0  0  1  0  0  0  0  0999 V2000
   -0.5998   -0.8650    1.0043 O   0  0  0  0  0  0  0  0  0  0  0  0
   -1.6587    1.1167    1.5432 O   0  0  0  0  0  0  0  0  0  0  0  0
    1.7440   -0.4512   -3.4220 N   0  0  0  0  0  0  0  0  0  0  0  0
    1.9597   -0.9517    0.6693 C   0  0  0  0  0  0  0  0  0  0  0  0
    1.5716   -0.5276   -0.8515 C   0  0  0  0  0  0  0  0  0  0  0  0
    0.6670   -0.3869    1.5657 C   0  0  2  0  0  0  0  0  0  0  0  0
    2.4282   -0.8358   -2.1413 C   0  0  2  0  0  0  0  0  0  0  0  0
    3.2742   -0.1750    1.0602 C   0  0  0  0  0  0  0  0  0  0  0  0
    2.0704   -2.5261    0.8399 C   0  0  0  0  0  0  0  0  0  0  0  0
    0.6271   -0.6217    3.1028 C   0  0  0  0  0  0  0  0  0  0  0  0
    3.8167   -0.1822   -2.1547 C   0  0  0  0  0  0  0  0  0  0  0  0
    4.5423   -0.7898    0.9911 C   0  0  0  0  0  0  0  0  0  0  0  0
    1.3390   -3.4105    0.0244 C   0  0  0  0  0  0  0  0  0  0  0  0
    3.2800    1.1770    1.4628 C   0  0  0  0  0  0  0  0  0  0  0  0
    2.8928   -3.1531    1.8137 C   0  0  0  0  0  0  0  0  0  0  0  0
    1.7364   -0.0101    3.9491 C   0  0  0  0  0  0  0  0  0  0  0  0
    0.5574   -1.2287   -3.7559 C   0  0  0  0  0  0  0  0  0  0  0  0
    1.5741    0.9803   -3.6582 C   0  0  0  0  0  0  0  0  0  0  0  0
    5.7269   -0.1337    1.3397 C   0  0  0  0  0  0  0  0  0  0  0  0
    1.3778   -4.8064    0.2041 C   0  0  0  0  0  0  0  0  0  0  0  0
    4.4688    1.8475    1.7985 C   0  0  0  0  0  0  0  0  0  0  0  0
    2.9620   -4.5496    1.9713 C   0  0  0  0  0  0  0  0  0  0  0  0
   -1.6864    0.0088    1.0683 C   0  0  0  0  0  0  0  0  0  0  0  0
    5.6924    1.1934    1.7318 C   0  0  0  0  0  0  0  0  0  0  0  0
    2.1716   -5.3769    1.1908 C   0  0  0  0  0  0  0  0  0  0  0  0
   -2.9361   -0.5729    0.4063 C   0  0  0  0  0  0  0  0  0  0  0  0
  1 23  1  0  0  0  0
  2 23  2  0  0  0  0
  3 17  1  0  0  0  0
  3 18  1  0  0  0  0
  4  5  1  0  0  0  0
  4  8  1  0  0  0  0
  4  9  1  0  0  0  0
  5  7  1  0  0  0  0
  6 10  1  1  0  0  0
  6  4  1  0  0  0  0
  6  1  1  0  0  0  0
  7  3  1  6  0  0  0
  7 11  1  0  0  0  0
  8 12  2  0  0  0  0
  8 14  1  0  0  0  0
  9 13  2  0  0  0  0
  9 15  1  0  0  0  0
 10 16  1  0  0  0  0
 12 19  1  0  0  0  0
 13 20  1  0  0  0  0
 14 21  2  0  0  0  0
 15 22  2  0  0  0  0
 19 24  2  0  0  0  0
 20 25  2  0  0  0  0
 21 24  1  0  0  0  0
 22 25  1  0  0  0  0
 23 26  1  0  0  0  0
M  END
