1002
 OpenBabel10141418203D

 21 22  0  0  1  0  0  0  0  0999 V2000
    3.7110    0.4506    2.7316 O   0  0  0  0  0  0  0  0  0  0  0  0
    2.9257   -2.5258    1.1214 N   0  0  0  0  0  0  0  0  0  0  0  0
    5.2351   -0.7140    1.4195 N   0  0  0  0  0  0  0  0  0  0  0  0
    2.8643   -1.0332    1.0066 C   0  0  1  0  0  0  0  0  0  0  0  0
    1.4781   -0.4513    1.3126 C   0  0  0  0  0  0  0  0  0  0  0  0
    1.9667   -3.0666    0.1345 C   0  0  0  0  0  0  0  0  0  0  0  0
    0.4045   -1.0863    0.4336 C   0  0  0  0  0  0  0  0  0  0  0  0
    0.5221   -2.6077    0.3632 C   0  0  0  0  0  0  0  0  0  0  0  0
    2.6499   -2.9964    2.5035 C   0  0  0  0  0  0  0  0  0  0  0  0
    3.9671   -0.3434    1.8291 C   0  0  0  0  0  0  0  0  0  0  0  0
    2.6929   -4.5273    2.6660 C   0  0  0  0  0  0  0  0  0  0  0  0
    2.3844   -4.9501    4.1060 C   0  0  0  0  0  0  0  0  0  0  0  0
    6.4155   -0.1616    1.9703 C   0  0  0  0  0  0  0  0  0  0  0  0
    2.4200   -6.4638    4.2600 C   0  0  0  0  0  0  0  0  0  0  0  0
    6.6303    1.2363    2.0081 C   0  0  0  0  0  0  0  0  0  0  0  0
    7.4108   -1.0396    2.4495 C   0  0  0  0  0  0  0  0  0  0  0  0
    7.8013    1.7330    2.6067 C   0  0  0  0  0  0  0  0  0  0  0  0
    8.5688   -0.5076    3.0397 C   0  0  0  0  0  0  0  0  0  0  0  0
    5.6710    2.2449    1.4314 C   0  0  0  0  0  0  0  0  0  0  0  0
    7.2187   -2.5320    2.4715 C   0  0  0  0  0  0  0  0  0  0  0  0
    8.7604    0.8679    3.1233 C   0  0  0  0  0  0  0  0  0  0  0  0
  1 10  2  0  0  0  0
  2  4  1  0  0  0  0
  2  6  1  0  0  0  0
  2  9  1  0  0  0  0
  3 10  1  0  0  0  0
  3 13  1  0  0  0  0
  4  5  1  0  0  0  0
  4 10  1  1  0  0  0
  5  7  1  0  0  0  0
  6  8  1  0  0  0  0
  7  8  1  0  0  0  0
  9 11  1  0  0  0  0
 11 12  1  0  0  0  0
 12 14  1  0  0  0  0
 13 15  2  0  0  0  0
 13 16  1  0  0  0  0
 15 17  1  0  0  0  0
 15 19  1  0  0  0  0
 16 18  2  0  0  0  0
 16 20  1  0  0  0  0
 17 21  2  0  0  0  0
 18 21  1  0  0  0  0
M  END
