1210
 OpenBabel10141417483D

 21 22  0  0  1  0  0  0  0  0999 V2000
    0.5628   -0.3332   -0.1681 O   0  0  0  0  0  0  0  0  0  0  0  0
    3.9579    0.1425   -1.5352 O   0  0  0  0  0  0  0  0  0  0  0  0
   -4.4667   -0.2914    3.0841 O   0  0  0  0  0  0  0  0  0  0  0  0
    3.6153   -2.7175   -2.0799 N   0  0  0  0  0  0  0  0  0  0  0  0
    3.7472   -4.1689   -1.7724 C   0  0  0  0  0  0  0  0  0  0  0  0
   -1.9728   -1.5295   -0.0214 C   0  0  0  0  0  0  0  0  0  0  0  0
   -1.5295   -0.4567    0.9467 C   0  0  0  0  0  0  0  0  0  0  0  0
    2.8544   -1.9662   -1.0534 C   0  0  0  0  0  0  0  0  0  0  0  0
   -3.1183   -2.3864    0.5121 C   0  0  0  0  0  0  0  0  0  0  0  0
    2.6722   -0.4740   -1.3990 C   0  0  1  0  0  0  0  0  0  0  0  0
   -4.2535   -1.5327    1.0480 C   0  0  0  0  0  0  0  0  0  0  0  0
   -2.4111    0.0016    1.9484 C   0  0  0  0  0  0  0  0  0  0  0  0
    4.5374   -4.8423   -2.9161 C   0  0  0  0  0  0  0  0  0  0  0  0
    4.5183   -4.4021   -0.4601 C   0  0  0  0  0  0  0  0  0  0  0  0
    2.3724   -4.8597   -1.6915 C   0  0  0  0  0  0  0  0  0  0  0  0
   -0.2648    0.1622    0.8125 C   0  0  0  0  0  0  0  0  0  0  0  0
    1.8709    0.2450   -0.2954 C   0  0  0  0  0  0  0  0  0  0  0  0
   -3.7583   -0.6009    2.1202 C   0  0  0  0  0  0  0  0  0  0  0  0
   -2.0479    1.0562    2.7926 C   0  0  0  0  0  0  0  0  0  0  0  0
    0.0731    1.2294    1.6546 C   0  0  0  0  0  0  0  0  0  0  0  0
   -0.8153    1.6770    2.6346 C   0  0  0  0  0  0  0  0  0  0  0  0
  1 16  1  0  0  0  0
  1 17  1  0  0  0  0
  3 18  2  0  0  0  0
  4  5  1  0  0  0  0
  4  8  1  0  0  0  0
  5 13  1  0  0  0  0
  5 14  1  0  0  0  0
  5 15  1  0  0  0  0
  6  7  1  0  0  0  0
  6  9  1  0  0  0  0
  7 12  2  0  0  0  0
  7 16  1  0  0  0  0
  8 10  1  0  0  0  0
  9 11  1  0  0  0  0
 10  2  1  1  0  0  0
 10 17  1  0  0  0  0
 11 18  1  0  0  0  0
 12 18  1  0  0  0  0
 12 19  1  0  0  0  0
 16 20  2  0  0  0  0
 19 21  2  0  0  0  0
 20 21  1  0  0  0  0
M  END
