854
 OpenBabel10141417493D

 19 22  0  0  1  0  0  0  0  0999 V2000
    1.2772    0.4938   -0.2999 O   0  0  0  0  0  0  0  0  0  0  0  0
    6.6344   -2.9237    2.7378 N   0  0  0  0  0  0  0  0  0  0  0  0
    4.7377   -2.9568    0.3733 C   0  0  2  0  0  0  0  0  0  0  0  0
    6.2495   -3.2508    0.3959 C   0  0  2  0  0  0  0  0  0  0  0  0
    6.9427   -2.3341    1.3736 C   0  0  1  0  0  0  0  0  0  0  0  0
    4.2226   -3.1615    1.8477 C   0  0  0  0  0  0  0  0  0  0  0  0
    4.1288   -3.8777   -0.7191 C   0  0  0  0  0  0  0  0  0  0  0  0
    6.9300   -3.7244   -0.8771 C   0  0  0  0  0  0  0  0  0  0  0  0
    4.3577   -1.4922    0.1431 C   0  0  0  0  0  0  0  0  0  0  0  0
    6.5812   -0.8265    1.1616 C   0  0  0  0  0  0  0  0  0  0  0  0
    5.3123   -3.6421    2.8167 C   0  0  0  0  0  0  0  0  0  0  0  0
    4.8355   -5.2335   -0.8815 C   0  0  0  0  0  0  0  0  0  0  0  0
    6.3603   -5.1439   -1.1178 C   0  0  0  0  0  0  0  0  0  0  0  0
    5.2327   -0.4876    0.5487 C   0  0  0  0  0  0  0  0  0  0  0  0
    3.0173   -1.1553   -0.1798 C   0  0  0  0  0  0  0  0  0  0  0  0
    7.6679   -3.9552    3.0432 C   0  0  0  0  0  0  0  0  0  0  0  0
    4.8149    0.8668    0.4784 C   0  0  0  0  0  0  0  0  0  0  0  0
    2.5993    0.1804   -0.1385 C   0  0  0  0  0  0  0  0  0  0  0  0
    3.4914    1.1824    0.1321 C   0  0  0  0  0  0  0  0  0  0  0  0
  1 18  1  0  0  0  0
  2 11  1  0  0  0  0
  2 16  1  0  0  0  0
  3  4  1  0  0  0  0
  3  6  1  1  0  0  0
  3  7  1  0  0  0  0
  3  9  1  0  0  0  0
  4  5  1  0  0  0  0
  4  8  1  6  0  0  0
  5  2  1  1  0  0  0
  5 10  1  0  0  0  0
  6 11  1  0  0  0  0
  7 12  1  0  0  0  0
  8 13  1  0  0  0  0
  9 14  2  0  0  0  0
  9 15  1  0  0  0  0
 10 14  1  0  0  0  0
 12 13  1  0  0  0  0
 14 17  1  0  0  0  0
 15 18  2  0  0  0  0
 17 19  2  0  0  0  0
 18 19  1  0  0  0  0
M  END
