451
 OpenBabel10141417493D

 24 25  0  0  1  0  0  0  0  0999 V2000
    8.7573   -2.7840    6.4763 I   0  0  0  0  0  0  0  0  0  0  0  0
   11.9375   -3.7015    1.2849 I   0  0  0  0  0  0  0  0  0  0  0  0
   14.7503   -7.8317    5.4601 I   0  0  0  0  0  0  0  0  0  0  0  0
   10.5392   -8.4425    1.0834 I   0  0  0  0  0  0  0  0  0  0  0  0
   10.8808   -4.2446    4.5463 O   0  0  0  0  0  0  0  0  0  0  0  0
    6.2751    2.1173    0.4925 O   0  0  0  0  0  0  0  0  0  0  0  0
    5.6934    0.2527   -0.5731 O   0  0  0  0  0  0  0  0  0  0  0  0
   13.0688   -9.1043    2.9844 O   0  0  0  0  0  0  0  0  0  0  0  0
    7.5875    0.8400    2.4425 N   0  0  0  0  0  0  0  0  0  0  0  0
    7.0367   -1.3641    1.4189 C   0  0  0  0  0  0  0  0  0  0  0  0
    7.4358    0.1030    1.1643 C   0  0  1  0  0  0  0  0  0  0  0  0
    8.0465   -2.1427    2.2367 C   0  0  0  0  0  0  0  0  0  0  0  0
    9.1169   -2.7776    1.6054 C   0  0  0  0  0  0  0  0  0  0  0  0
    7.9889   -2.1558    3.6359 C   0  0  0  0  0  0  0  0  0  0  0  0
   10.0024   -3.5392    3.7488 C   0  0  0  0  0  0  0  0  0  0  0  0
    8.9413   -2.8675    4.3829 C   0  0  0  0  0  0  0  0  0  0  0  0
   10.1378   -3.3724    2.3593 C   0  0  0  0  0  0  0  0  0  0  0  0
    6.3692    0.7781    0.2825 C   0  0  0  0  0  0  0  0  0  0  0  0
   11.3067   -5.5081    4.1776 C   0  0  0  0  0  0  0  0  0  0  0  0
   10.7039   -6.3103    3.2032 C   0  0  0  0  0  0  0  0  0  0  0  0
   12.4625   -5.9637    4.8206 C   0  0  0  0  0  0  0  0  0  0  0  0
   13.0426   -7.1804    4.4431 C   0  0  0  0  0  0  0  0  0  0  0  0
   11.3368   -7.4782    2.7638 C   0  0  0  0  0  0  0  0  0  0  0  0
   12.4965   -7.9302    3.3953 C   0  0  0  0  0  0  0  0  0  0  0  0
  1 16  1  0  0  0  0
  2 17  1  0  0  0  0
  3 22  1  0  0  0  0
  4 23  1  0  0  0  0
  5 15  1  0  0  0  0
  5 19  1  0  0  0  0
  6 18  1  0  0  0  0
  7 18  2  0  0  0  0
  8 24  1  0  0  0  0
 10 12  1  0  0  0  0
 11 18  1  6  0  0  0
 11 10  1  0  0  0  0
 11  9  1  0  0  0  0
 12 13  2  0  0  0  0
 12 14  1  0  0  0  0
 13 17  1  0  0  0  0
 14 16  2  0  0  0  0
 15 16  1  0  0  0  0
 15 17  2  0  0  0  0
 19 20  2  0  0  0  0
 19 21  1  0  0  0  0
 20 23  1  0  0  0  0
 21 22  2  0  0  0  0
 22 24  1  0  0  0  0
 23 24  2  0  0  0  0
M  END
