
 OpenBabel10141419233D

 13 13  0  0  1  0  0  0  0  0999 V2000
    2.0899    1.8550    0.7831 C   0  0  0  0  0  0  0  0  0  0  0  0
    2.4959    0.8856   -0.3295 C   0  0  1  0  0  0  0  0  0  0  0  0
    3.4599   -0.2440    0.1463 C   0  0  1  0  0  0  0  0  0  0  0  0
    4.7808    0.2484    0.7046 C   0  0  0  0  0  0  0  0  0  0  0  0
    4.9361    0.5318    2.0744 C   0  0  0  0  0  0  0  0  0  0  0  0
    6.1589    0.9882    2.5536 C   0  0  0  0  0  0  0  0  0  0  0  0
    7.2316    1.1672    1.6858 C   0  0  0  0  0  0  0  0  0  0  0  0
    7.1006    0.8996    0.3325 C   0  0  0  0  0  0  0  0  0  0  0  0
    5.8750    0.4436   -0.1592 C   0  0  0  0  0  0  0  0  0  0  0  0
    8.4289    1.6151    2.1649 O   0  0  0  0  0  0  0  0  0  0  0  0
    6.3543    1.2775    3.8757 O   0  0  0  0  0  0  0  0  0  0  0  0
    2.7970   -1.0892    1.0974 O   0  0  0  0  0  0  0  0  0  0  0  0
    1.2467    0.3086   -0.8748 N   0  0  0  0  0  0  0  0  0  0  0  0
  2  1  1  1  0  0  0
  2  3  1  0  0  0  0
  2 13  1  0  0  0  0
  3  4  1  1  0  0  0
  3 12  1  0  0  0  0
  4  5  2  0  0  0  0
  4  9  1  0  0  0  0
  5  6  1  0  0  0  0
  6  7  2  0  0  0  0
  6 11  1  0  0  0  0
  7  8  1  0  0  0  0
  7 10  1  0  0  0  0
  8  9  2  0  0  0  0
M  END
