281
 OpenBabel10141417493D

 17 17  0  0  0  0  0  0  0  0999 V2000
    2.1899   -0.3581    0.1693 O   0  0  0  0  0  0  0  0  0  0  0  0
    3.1955    2.0457    1.8952 N   0  0  0  0  0  0  0  0  0  0  0  0
    3.5067   -1.4462    1.7485 N   0  0  0  0  0  0  0  0  0  0  0  0
    3.9360    0.9268    1.2561 C   0  0  0  0  0  0  0  0  0  0  0  0
    2.8166    1.7307    3.2828 C   0  0  0  0  0  0  0  0  0  0  0  0
    2.0383    2.5108    1.1100 C   0  0  0  0  0  0  0  0  0  0  0  0
    2.8991   -2.7201    1.5986 C   0  0  0  0  0  0  0  0  0  0  0  0
    3.0992   -0.3462    0.9780 C   0  0  0  0  0  0  0  0  0  0  0  0
    2.2965   -3.3246    2.7254 C   0  0  0  0  0  0  0  0  0  0  0  0
    2.9532   -3.4217    0.3714 C   0  0  0  0  0  0  0  0  0  0  0  0
    2.2268    2.8998    4.0792 C   0  0  0  0  0  0  0  0  0  0  0  0
    2.3538    2.9452   -0.3175 C   0  0  0  0  0  0  0  0  0  0  0  0
    1.7183   -4.5990    2.5967 C   0  0  0  0  0  0  0  0  0  0  0  0
    2.3584   -4.6924    0.2798 C   0  0  0  0  0  0  0  0  0  0  0  0
    2.1811   -2.6288    4.0539 C   0  0  0  0  0  0  0  0  0  0  0  0
    3.6637   -2.8978   -0.8495 C   0  0  0  0  0  0  0  0  0  0  0  0
    1.7449   -5.2768    1.3833 C   0  0  0  0  0  0  0  0  0  0  0  0
  1  8  2  0  0  0  0
  2  4  1  0  0  0  0
  2  5  1  0  0  0  0
  2  6  1  0  0  0  0
  3  7  1  0  0  0  0
  3  8  1  0  0  0  0
  4  8  1  0  0  0  0
  5 11  1  0  0  0  0
  6 12  1  0  0  0  0
  7  9  2  0  0  0  0
  7 10  1  0  0  0  0
  9 13  1  0  0  0  0
  9 15  1  0  0  0  0
 10 14  2  0  0  0  0
 10 16  1  0  0  0  0
 13 17  2  0  0  0  0
 14 17  1  0  0  0  0
M  END
