
 OpenBabel10141418343D

101106  0  0  1  0  0  0  0  0999 V2000
    0.0964    0.8148   -3.8319 C   0  0  0  0  0  0  0  0  0  0  0  0
   -0.7785    1.3327   -2.7248 C   0  0  0  0  0  0  0  0  0  0  0  0
   -1.0262    0.2700   -1.6553 C   0  0  0  0  0  0  0  0  0  0  0  0
   -1.9121    0.7852   -0.5102 C   0  0  2  0  0  0  0  0  0  0  0  0
   -2.1112   -0.2507    0.5079 N   0  0  0  0  0  0  0  0  0  0  0  0
   -2.4599    0.0864    1.7954 C   0  0  0  0  0  0  0  0  0  0  0  0
   -3.0152   -1.0469    2.6878 C   0  0  1  0  0  0  0  0  0  0  0  0
   -3.6669   -2.0737    1.8839 N   0  0  0  0  0  0  0  0  0  0  0  0
   -2.9772   -3.1897    1.4580 C   0  0  0  0  0  0  0  0  0  0  0  0
   -3.9282   -4.3027    1.0268 C   0  0  2  0  0  0  0  0  0  0  0  0
   -3.2563   -5.6715    1.0078 C   0  0  0  0  0  0  0  0  0  0  0  0
   -4.4647   -7.0652    1.0794 S   0  0  0  0  0  0  0  0  0  0  0  0
   -5.8769   -6.6670   -0.3569 S   0  0  0  0  0  0  0  0  0  0  0  0
   -7.4143   -6.2868    0.5684 C   0  0  0  0  0  0  0  0  0  0  0  0
   -7.7075   -4.8760    1.1044 C   0  0  2  0  0  0  0  0  0  0  0  0
   -7.3807   -3.7718    0.1946 N   0  0  0  0  0  0  0  0  0  0  0  0
   -8.2852   -2.7365   -0.0313 C   0  0  0  0  0  0  0  0  0  0  0  0
   -7.6530   -1.4366   -0.5944 C   0  0  1  0  0  0  0  0  0  0  0  0
   -6.6176   -1.8757   -1.5472 N   0  0  0  0  0  0  0  0  0  0  0  0
   -5.7328   -1.2261   -2.3388 C   0  0  0  0  0  0  0  0  0  0  0  0
   -5.3943    0.2585   -2.1641 C   0  0  2  0  0  0  0  0  0  0  0  0
   -5.3103    0.9487   -3.5432 C   0  0  0  0  0  0  0  0  0  0  0  0
   -9.4646   -2.7963    0.3041 O   0  0  0  0  0  0  0  0  0  0  0  0
   -7.1328   -0.6255    0.6088 C   0  0  0  0  0  0  0  0  0  0  0  0
   -5.0296   -1.9439   -3.0631 O   0  0  0  0  0  0  0  0  0  0  0  0
   -6.5897    0.8724   -4.3598 C   0  0  0  0  0  0  0  0  0  0  0  0
   -4.0836    0.1667   -1.4867 N   0  0  0  0  0  0  0  0  0  0  0  0
   -3.3241    1.2072   -1.0145 C   0  0  0  0  0  0  0  0  0  0  0  0
   -2.3003    1.2311    2.2151 O   0  0  0  0  0  0  0  0  0  0  0  0
   -4.0157   -0.4244    3.6806 C   0  0  0  0  0  0  0  0  0  0  0  0
   -1.7640   -3.2054    1.2966 O   0  0  0  0  0  0  0  0  0  0  0  0
   -4.5130   -3.8862   -0.2776 N   0  0  0  0  0  0  0  0  0  0  0  0
   -5.1673   -1.6192    4.4438 S   0  0  0  0  0  0  0  0  0  0  0  0
   -7.2872   -4.4988    2.5528 C   0  0  0  0  0  0  0  0  0  0  0  0
   -6.6045   -5.4097    3.3141 N   0  0  0  0  0  0  0  0  0  0  0  0
   -6.6659   -5.4173    4.7942 C   0  0  2  0  0  0  0  0  0  0  0  0
   -5.2758   -5.4783    5.4875 C   0  0  0  0  0  0  0  0  0  0  0  0
   -5.1795   -5.1024    6.8280 N   0  0  0  0  0  0  0  0  0  0  0  0
   -7.6094   -3.4065    3.0254 O   0  0  0  0  0  0  0  0  0  0  0  0
   -7.7870    1.4332   -3.8901 C   0  0  0  0  0  0  0  0  0  0  0  0
   -8.9702    1.3216   -4.6316 C   0  0  0  0  0  0  0  0  0  0  0  0
   -8.9584    0.6537   -5.8511 C   0  0  0  0  0  0  0  0  0  0  0  0
   -7.7787    0.1196   -6.3506 C   0  0  0  0  0  0  0  0  0  0  0  0
   -6.5966    0.2339   -5.6118 C   0  0  0  0  0  0  0  0  0  0  0  0
  -10.0916    0.4992   -6.5939 O   0  0  0  0  0  0  0  0  0  0  0  0
   -3.6992    2.3749   -1.0410 O   0  0  0  0  0  0  0  0  0  0  0  0
   -4.2892   -5.9270    4.9044 O   0  0  0  0  0  0  0  0  0  0  0  0
   -6.3906   -4.0209    7.8904 C   0  0  0  0  0  0  0  0  0  0  0  0
   -5.5556   -3.8927    9.7141 C   0  0  0  0  0  0  0  0  0  0  0  0
   -4.0338   -5.2027    9.7891 C   0  0  0  0  0  0  0  0  0  0  0  0
   -3.7266   -5.8456    7.8698 C   0  0  1  0  0  0  0  0  0  0  0  0
   -4.0008   -7.2793    7.9671 C   0  0  0  0  0  0  0  0  0  0  0  0
   -3.4714   -8.2643    7.5185 O   0  0  0  0  0  0  0  0  0  0  0  0
   -5.0915   -7.1669    8.7518 N   0  0  0  0  0  0  0  0  0  0  0  0
   -5.6084   -5.7159    8.6750 C   0  0  2  0  0  0  0  0  0  0  0  0
   -4.3208   -3.9902    8.1918 C   0  0  0  0  0  0  0  0  0  0  0  0
   -6.8141   -5.9377    9.8276 C   0  0  0  0  0  0  0  0  0  0  0  0
   -3.1361   -3.7392    8.5674 O   0  0  0  0  0  0  0  0  0  0  0  0
   -4.5657   -2.8672    7.3493 N   0  0  0  0  0  0  0  0  0  0  0  0
   -3.9131   -1.5613    7.5335 C   0  0  1  0  0  0  0  0  0  0  0  0
   -4.9211   -0.4159    7.3118 C   0  0  0  0  0  0  0  0  0  0  0  0
   -2.6422   -1.3059    6.7027 C   0  0  0  0  0  0  0  0  0  0  0  0
   -6.0872   -0.4832    5.8815 S   0  0  0  0  0  0  0  0  0  0  0  0
   -1.9410   -0.1989    7.1244 N   0  0  0  0  0  0  0  0  0  0  0  0
   -0.9242    0.4955    6.3285 C   0  0  2  0  0  0  0  0  0  0  0  0
   -2.3448   -1.9311    5.6905 O   0  0  0  0  0  0  0  0  0  0  0  0
   -1.0560    1.9426    6.8488 C   0  0  0  0  0  0  0  0  0  0  0  0
   -1.6930    2.9178    6.1377 N   0  0  0  0  0  0  0  0  0  0  0  0
   -2.4581    2.8473    4.8976 C   0  0  0  0  0  0  0  0  0  0  0  0
    0.4988   -0.0502    6.5762 C   0  0  2  0  0  0  0  0  0  0  0  0
    1.4258    0.6494    5.7360 O   0  0  0  0  0  0  0  0  0  0  0  0
    0.6210   -1.5381    6.2513 C   0  0  0  0  0  0  0  0  0  0  0  0
   -7.9216    1.0299    0.6597 S   0  0  0  0  0  0  0  0  0  0  0  0
   -7.0805    1.8970    2.3227 S   0  0  0  0  0  0  0  0  0  0  0  0
   -3.9693    2.8967    5.1622 C   0  0  0  0  0  0  0  0  0  0  0  0
   -4.8394    2.9166    4.1115 N   0  0  0  0  0  0  0  0  0  0  0  0
   -0.7484    2.2170    8.0166 O   0  0  0  0  0  0  0  0  0  0  0  0
   -7.5538   -6.6107    5.1946 C   0  0  0  0  0  0  0  0  0  0  0  0
   -7.0154   -7.9419    4.7003 C   0  0  0  0  0  0  0  0  0  0  0  0
   -5.8362   -8.2124    4.5384 O   0  0  0  0  0  0  0  0  0  0  0  0
   -7.9587   -8.8814    4.4138 N   0  0  0  0  0  0  0  0  0  0  0  0
   -4.4325    2.8675    6.3042 O   0  0  0  0  0  0  0  0  0  0  0  0
   -4.6260    3.3168    2.7074 C   0  0  1  0  0  0  0  0  0  0  0  0
   -5.4476    2.4766    1.7012 C   0  0  0  0  0  0  0  0  0  0  0  0
   -5.0389    4.7975    2.6062 C   0  0  0  0  0  0  0  0  0  0  0  0
   -4.0281    5.6981    2.8646 N   0  0  0  0  0  0  0  0  0  0  0  0
   -4.2951    7.1472    2.9638 C   0  0  1  0  0  0  0  0  0  0  0  0
   -4.6223    7.5125    4.4273 C   0  0  0  0  0  0  0  0  0  0  0  0
   -6.2049    5.1571    2.4686 O   0  0  0  0  0  0  0  0  0  0  0  0
   -3.0652    7.8701    2.4060 C   0  0  0  0  0  0  0  0  0  0  0  0
   -3.1763    9.2086    2.3705 O   0  0  0  0  0  0  0  0  0  0  0  0
   -2.0616    7.3239    1.9657 O   0  0  0  0  0  0  0  0  0  0  0  0
   -4.9311    8.9713    4.6865 C   0  0  0  0  0  0  0  0  0  0  0  0
   -6.0097    9.6106    4.0578 C   0  0  0  0  0  0  0  0  0  0  0  0
   -6.2006   10.9873    4.2090 C   0  0  0  0  0  0  0  0  0  0  0  0
   -5.3192   11.7257    4.9883 C   0  0  0  0  0  0  0  0  0  0  0  0
   -4.2941   11.0994    5.6859 C   0  0  0  0  0  0  0  0  0  0  0  0
   -4.1027    9.7236    5.5355 C   0  0  0  0  0  0  0  0  0  0  0  0
   -5.4786   13.0792    5.0293 O   0  0  0  0  0  0  0  0  0  0  0  0
   -0.6041    0.2367   -4.8245 O   0  0  0  0  0  0  0  0  0  0  0  0
    1.3129    0.8751   -3.8769 O   0  0  0  0  0  0  0  0  0  0  0  0
  1  2  1  0  0  0  0
  1100  1  0  0  0  0
  1101  2  0  0  0  0
  2  3  1  0  0  0  0
  4  5  1  0  0  0  0
  4  3  1  6  0  0  0
  5  6  1  0  0  0  0
  6 29  2  0  0  0  0
  7  6  1  1  0  0  0
  7  8  1  0  0  0  0
  7 30  1  0  0  0  0
  8  9  1  0  0  0  0
  9 10  1  0  0  0  0
  9 31  2  0  0  0  0
 10 11  1  0  0  0  0
 10 32  1  6  0  0  0
 11 12  1  0  0  0  0
 12 13  1  0  0  0  0
 13 14  1  0  0  0  0
 15 14  1  6  0  0  0
 15 16  1  0  0  0  0
 15 34  1  0  0  0  0
 16 17  1  0  0  0  0
 17 23  2  0  0  0  0
 18 17  1  6  0  0  0
 18 19  1  0  0  0  0
 18 24  1  0  0  0  0
 19 20  1  0  0  0  0
 20 21  1  0  0  0  0
 20 25  2  0  0  0  0
 21 27  1  0  0  0  0
 21 22  1  6  0  0  0
 22 26  1  0  0  0  0
 24 73  1  0  0  0  0
 26 40  2  0  0  0  0
 26 44  1  0  0  0  0
 27 28  1  0  0  0  0
 28  4  1  0  0  0  0
 28 46  2  0  0  0  0
 30 33  1  0  0  0  0
 33 63  1  0  0  0  0
 34 35  1  0  0  0  0
 34 39  2  0  0  0  0
 35 36  1  0  0  0  0
 36 37  1  0  0  0  0
 36 78  1  6  0  0  0
 37 38  1  0  0  0  0
 37 47  2  0  0  0  0
 38 48  1  0  0  0  0
 40 41  1  0  0  0  0
 41 42  2  0  0  0  0
 42 43  1  0  0  0  0
 42 45  1  0  0  0  0
 43 44  2  0  0  0  0
 48 49  1  0  0  0  0
 49 50  1  0  0  0  0
 51 50  1  1  0  0  0
 51 38  1  0  0  0  0
 51 52  1  0  0  0  0
 52 54  1  0  0  0  0
 52 53  2  0  0  0  0
 54 55  1  0  0  0  0
 55 56  1  0  0  0  0
 55 57  1  1  0  0  0
 56 59  1  0  0  0  0
 56 58  2  0  0  0  0
 60 59  1  1  0  0  0
 60 61  1  0  0  0  0
 60 62  1  0  0  0  0
 62 64  1  0  0  0  0
 62 66  2  0  0  0  0
 63 61  1  0  0  0  0
 65 64  1  6  0  0  0
 65 67  1  0  0  0  0
 65 70  1  0  0  0  0
 67 68  1  0  0  0  0
 67 77  2  0  0  0  0
 68 69  1  0  0  0  0
 69 75  1  0  0  0  0
 70 71  1  6  0  0  0
 70 72  1  0  0  0  0
 73 74  1  0  0  0  0
 75 76  1  0  0  0  0
 75 82  2  0  0  0  0
 78 79  1  0  0  0  0
 79 80  2  0  0  0  0
 79 81  1  0  0  0  0
 83 76  1  0  0  0  0
 83 84  1  0  0  0  0
 83 85  1  1  0  0  0
 84 74  1  0  0  0  0
 85 86  1  0  0  0  0
 85 89  2  0  0  0  0
 87 86  1  1  0  0  0
 87 88  1  0  0  0  0
 87 90  1  0  0  0  0
 88 93  1  0  0  0  0
 90 91  1  0  0  0  0
 90 92  2  0  0  0  0
 93 94  1  0  0  0  0
 93 98  2  0  0  0  0
 94 95  2  0  0  0  0
 95 96  1  0  0  0  0
 96 97  2  0  0  0  0
 96 99  1  0  0  0  0
 97 98  1  0  0  0  0
M  END
