1627
 OpenBabel10141417513D

 27 28  0  0  1  0  0  0  0  0999 V2000
   -1.0063   -0.4624    2.1299 S   0  0  0  0  0  0  0  0  0  0  0  0
   -0.7518    1.9728    0.9264 O   0  0  0  0  0  0  0  0  0  0  0  0
   -2.5529    4.1901    1.7749 O   0  0  0  0  0  0  0  0  0  0  0  0
   -3.3099    3.0932    4.0108 O   0  0  0  0  0  0  0  0  0  0  0  0
   -1.0017    1.6039    4.6157 O   0  0  0  0  0  0  0  0  0  0  0  0
   -4.3715    3.7682   -0.7906 O   0  0  0  0  0  0  0  0  0  0  0  0
    0.6339    3.5711   -1.3457 O   0  0  0  0  0  0  0  0  0  0  0  0
   -0.8785    6.8829   -0.6630 N   0  0  0  0  0  0  0  0  0  0  0  0
   -1.5129    4.1636   -0.8636 N   0  0  0  0  0  0  0  0  0  0  0  0
    0.2628    7.8818   -2.4297 C   0  0  2  0  0  0  0  0  0  0  0  0
    0.2228    5.9242   -0.9399 C   0  0  3  0  0  0  0  0  0  0  0  0
    0.8104    6.4524   -2.2633 C   0  0  0  0  0  0  0  0  0  0  0  0
   -0.3232    8.1827   -1.0581 C   0  0  0  0  0  0  0  0  0  0  0  0
   -2.1354    2.1149    0.5175 C   0  0  2  0  0  0  0  0  0  0  0  0
   -2.1295    2.8093   -0.8961 C   0  0  1  0  0  0  0  0  0  0  0  0
   -2.9552    2.8239    1.6219 C   0  0  1  0  0  0  0  0  0  0  0  0
   -0.7772    8.0196   -3.5668 C   0  0  0  0  0  0  0  0  0  0  0  0
   -2.7301    2.2224    3.0135 C   0  0  1  0  0  0  0  0  0  0  0  0
   -0.1846    4.4334   -1.0776 C   0  0  0  0  0  0  0  0  0  0  0  0
   -1.2293    2.1149    3.3004 C   0  0  2  0  0  0  0  0  0  0  0  0
   -3.5194    2.9357   -1.5774 C   0  0  1  0  0  0  0  0  0  0  0  0
   -0.5345    1.3141    2.1844 C   0  0  1  0  0  0  0  0  0  0  0  0
   -1.3376    6.9495    0.7102 C   0  0  0  0  0  0  0  0  0  0  0  0
   -2.0460    7.1785   -3.3840 C   0  0  0  0  0  0  0  0  0  0  0  0
   -4.2303    1.6172   -1.8510 C   0  0  0  0  0  0  0  0  0  0  0  0
   -3.0483    7.3574   -4.5063 C   0  0  0  0  0  0  0  0  0  0  0  0
    0.1216   -1.0201    0.8312 C   0  0  0  0  0  0  0  0  0  0  0  0
  1 27  1  0  0  0  0
  2 22  1  0  0  0  0
  7 19  2  0  0  0  0
  8 11  1  0  0  0  0
  8 13  1  0  0  0  0
  8 23  1  0  0  0  0
  9 19  1  0  0  0  0
 10 12  1  0  0  0  0
 10 13  1  0  0  0  0
 10 17  1  6  0  0  0
 11 12  1  0  0  0  0
 11 19  1  0  0  0  0
 14  2  1  1  0  0  0
 14 16  1  0  0  0  0
 15 14  1  0  0  0  0
 15  9  1  1  0  0  0
 16 18  1  0  0  0  0
 16  3  1  1  0  0  0
 17 24  1  0  0  0  0
 18 20  1  0  0  0  0
 18  4  1  1  0  0  0
 20  5  1  1  0  0  0
 20 22  1  0  0  0  0
 21 25  1  1  0  0  0
 21 15  1  0  0  0  0
 21  6  1  0  0  0  0
 22  1  1  6  0  0  0
 24 26  1  0  0  0  0
M  END
