601
 OpenBabel10141417483D

 24 26  0  0  1  0  0  0  0  0999 V2000
    0.9857   -0.3459    0.0138 F   0  0  0  0  0  0  0  0  0  0  0  0
    5.6199   -4.9029   -0.4711 O   0  0  0  0  0  0  0  0  0  0  0  0
    0.7538    4.3871    1.2846 O   0  0  0  0  0  0  0  0  0  0  0  0
    3.4331   -4.3444   -0.4200 O   0  0  0  0  0  0  0  0  0  0  0  0
    7.1418   -1.6700   -3.1770 O   0  0  0  0  0  0  0  0  0  0  0  0
    5.1239   -2.6994   -0.3491 N   0  0  0  0  0  0  0  0  0  0  0  0
    2.2985    2.2595    0.0663 N   0  0  0  0  0  0  0  0  0  0  0  0
    6.2500   -3.7830   -3.1405 N   0  0  0  0  0  0  0  0  0  0  0  0
    6.8400   -4.1970   -0.7247 C   0  0  2  0  0  0  0  0  0  0  0  0
    6.5550   -2.7880   -0.2580 C   0  0  0  0  0  0  0  0  0  0  0  0
    0.8180    2.2038    0.1724 C   0  0  0  0  0  0  0  0  0  0  0  0
    2.8946    3.1855    1.0663 C   0  0  0  0  0  0  0  0  0  0  0  0
    4.4075   -1.4820   -0.2705 C   0  0  0  0  0  0  0  0  0  0  0  0
    7.2214   -4.3364   -2.2097 C   0  0  0  0  0  0  0  0  0  0  0  0
    2.9635    1.0123   -0.0458 C   0  0  0  0  0  0  0  0  0  0  0  0
    0.2018    3.6074    0.2161 C   0  0  0  0  0  0  0  0  0  0  0  0
    2.1639    4.5394    1.0825 C   0  0  0  0  0  0  0  0  0  0  0  0
    4.5987   -3.9864   -0.4093 C   0  0  0  0  0  0  0  0  0  0  0  0
    3.0165   -1.4509   -0.1949 C   0  0  0  0  0  0  0  0  0  0  0  0
    5.0674   -0.2478   -0.2730 C   0  0  0  0  0  0  0  0  0  0  0  0
    2.3207   -0.2412   -0.0850 C   0  0  0  0  0  0  0  0  0  0  0  0
    4.3609    0.9662   -0.1789 C   0  0  0  0  0  0  0  0  0  0  0  0
    6.2638   -2.4582   -3.5144 C   0  0  0  0  0  0  0  0  0  0  0  0
    5.1070   -2.0559   -4.3823 C   0  0  0  0  0  0  0  0  0  0  0  0
  1 21  1  0  0  0  0
  2  9  1  0  0  0  0
  2 18  1  0  0  0  0
  3 16  1  0  0  0  0
  3 17  1  0  0  0  0
  4 18  2  0  0  0  0
  5 23  2  0  0  0  0
  6 10  1  0  0  0  0
  6 13  1  0  0  0  0
  6 18  1  0  0  0  0
  7 11  1  0  0  0  0
  7 12  1  0  0  0  0
  7 15  1  0  0  0  0
  8 14  1  0  0  0  0
  8 23  1  0  0  0  0
  9 10  1  0  0  0  0
  9 14  1  6  0  0  0
 11 16  1  0  0  0  0
 12 17  1  0  0  0  0
 13 19  2  0  0  0  0
 13 20  1  0  0  0  0
 15 21  2  0  0  0  0
 15 22  1  0  0  0  0
 19 21  1  0  0  0  0
 20 22  2  0  0  0  0
 23 24  1  0  0  0  0
M  END
