1583
 OpenBabel10141417493D

 49 49  0  0  1  0  0  0  0  0999 V2000
   -7.3691   10.7484   -7.4283 I   0  0  0  0  0  0  0  0  0  0  0  0
   -5.5704    8.5153   -2.2685 I   0  0  0  0  0  0  0  0  0  0  0  0
   -2.5451    2.8989   -0.9952 I   0  0  0  0  0  0  0  0  0  0  0  0
    1.2463   -2.2055   -0.3876 I   0  0  0  0  0  0  0  0  0  0  0  0
   -3.8817    5.4221   -9.6495 I   0  0  0  0  0  0  0  0  0  0  0  0
   -1.2335   10.7279   -8.2535 I   0  0  0  0  0  0  0  0  0  0  0  0
    2.8848    2.6429    4.7921 I   0  0  0  0  0  0  0  0  0  0  0  0
    6.0509   -6.3997   -3.3011 Na  0  3  0  0  0 15  0  0  0  0  0  0
    5.8181    2.4712    5.1327 Na  0  3  0  0  0 15  0  0  0  0  0  0
   -5.4891    8.6137   -5.5742 O   0  0  0  0  0  0  0  0  0  0  0  0
   -0.0057    1.2835    0.4779 O   0  0  0  0  0  0  0  0  0  0  0  0
   -6.4466   16.4738   -2.6227 O   0  5  0  0  0  0  0  0  0  0  0  0
   -7.8046   15.8674   -0.8828 O   0  0  0  0  0  0  0  0  0  0  0  0
   -1.6163   -2.9030   -4.3557 O   0  5  0  0  0  0  0  0  0  0  0  0
   -3.8048   -2.2042   -4.4913 O   0  0  0  0  0  0  0  0  0  0  0  0
   -1.6595    7.7872   -9.5483 O   0  0  0  0  0  0  0  0  0  0  0  0
    4.8898    0.5599    3.0722 O   0  0  0  0  0  0  0  0  0  0  0  0
   -8.3071   13.5756   -2.4373 N   0  0  0  0  0  0  0  0  0  0  0  0
   -3.2043    0.2394   -5.2671 N   0  0  0  0  0  0  0  0  0  0  0  0
   -6.0554   13.9353   -3.5039 C   0  0  0  0  0  0  0  0  0  0  0  0
   -0.7106   -0.2350   -5.0218 C   0  0  0  0  0  0  0  0  0  0  0  0
   -6.9184   14.1257   -2.2525 C   0  0  1  0  0  0  0  0  0  0  0  0
   -5.8523   12.5071   -3.9805 C   0  0  0  0  0  0  0  0  0  0  0  0
   -2.1004   -0.7771   -5.4019 C   0  0  1  0  0  0  0  0  0  0  0  0
   -0.5098    0.1247   -3.5695 C   0  0  0  0  0  0  0  0  0  0  0  0
   -5.7673   11.3963   -3.1266 C   0  0  0  0  0  0  0  0  0  0  0  0
   -5.8785   12.2829   -5.3559 C   0  0  0  0  0  0  0  0  0  0  0  0
    0.3458   -0.6084   -2.7645 C   0  0  0  0  0  0  0  0  0  0  0  0
   -1.2607    1.1391   -2.9852 C   0  0  0  0  0  0  0  0  0  0  0  0
   -5.6767    9.8742   -5.0287 C   0  0  0  0  0  0  0  0  0  0  0  0
   -5.9886   10.9778   -5.8309 C   0  0  0  0  0  0  0  0  0  0  0  0
   -5.6369   10.0913   -3.6464 C   0  0  0  0  0  0  0  0  0  0  0  0
   -0.2466    0.7471   -0.7870 C   0  0  0  0  0  0  0  0  0  0  0  0
   -1.1497    1.4473   -1.6207 C   0  0  0  0  0  0  0  0  0  0  0  0
    0.3650   -0.3934   -1.3793 C   0  0  0  0  0  0  0  0  0  0  0  0
   -7.0462   15.6525   -1.8827 C   0  0  0  0  0  0  0  0  0  0  0  0
   -2.6013   -2.0783   -4.6733 C   0  0  0  0  0  0  0  0  0  0  0  0
   -4.5611    8.4798   -6.6070 C   0  0  0  0  0  0  0  0  0  0  0  0
    1.2590    1.2753    1.0443 C   0  0  0  0  0  0  0  0  0  0  0  0
   -3.5173    9.3863   -6.8314 C   0  0  0  0  0  0  0  0  0  0  0  0
   -4.6733    7.3605   -7.4442 C   0  0  0  0  0  0  0  0  0  0  0  0
    1.4864    1.8842    2.2730 C   0  0  0  0  0  0  0  0  0  0  0  0
    2.3631    0.6656    0.4691 C   0  0  0  0  0  0  0  0  0  0  0  0
   -3.7134    7.1321   -8.4469 C   0  0  0  0  0  0  0  0  0  0  0  0
   -2.6134    9.1991   -7.8818 C   0  0  0  0  0  0  0  0  0  0  0  0
    2.7080    1.6753    2.9602 C   0  0  0  0  0  0  0  0  0  0  0  0
    3.5057    0.3072    1.1793 C   0  0  0  0  0  0  0  0  0  0  0  0
   -2.6638    8.0376   -8.6493 C   0  0  0  0  0  0  0  0  0  0  0  0
    3.7038    0.8343    2.4355 C   0  0  0  0  0  0  0  0  0  0  0  0
  1 31  1  0  0  0  0
  2 32  1  0  0  0  0
  3 34  1  0  0  0  0
  4 35  1  0  0  0  0
  5 44  1  0  0  0  0
  6 45  1  0  0  0  0
  7 46  1  0  0  0  0
 10 30  1  0  0  0  0
 10 38  1  0  0  0  0
 11 33  1  0  0  0  0
 11 39  1  0  0  0  0
 12 36  1  0  0  0  0
 13 36  2  0  0  0  0
 14 37  1  0  0  0  0
 15 37  2  0  0  0  0
 16 48  1  0  0  0  0
 17 49  1  0  0  0  0
 20 23  1  0  0  0  0
 21 25  1  0  0  0  0
 22 36  1  6  0  0  0
 22 20  1  0  0  0  0
 22 18  1  0  0  0  0
 23 26  2  0  0  0  0
 23 27  1  0  0  0  0
 24 37  1  1  0  0  0
 24 21  1  0  0  0  0
 24 19  1  0  0  0  0
 25 28  2  0  0  0  0
 25 29  1  0  0  0  0
 26 32  1  0  0  0  0
 27 31  2  0  0  0  0
 28 35  1  0  0  0  0
 29 34  2  0  0  0  0
 30 31  1  0  0  0  0
 30 32  2  0  0  0  0
 33 34  1  0  0  0  0
 33 35  2  0  0  0  0
 38 40  2  0  0  0  0
 38 41  1  0  0  0  0
 39 42  2  0  0  0  0
 39 43  1  0  0  0  0
 40 45  1  0  0  0  0
 41 44  2  0  0  0  0
 42 46  1  0  0  0  0
 43 47  2  0  0  0  0
 44 48  1  0  0  0  0
 45 48  2  0  0  0  0
 46 49  2  0  0  0  0
 47 49  1  0  0  0  0
M  CHG  4   8   1   9   1  12  -1  14  -1
M  END
