722
 OpenBabel10141417493D

 29 30  0  0  1  0  0  0  0  0999 V2000
    4.6828    0.2477    1.1062 O   0  0  0  0  0  0  0  0  0  0  0  0
    0.5048    0.0093    2.0906 O   0  0  0  0  0  0  0  0  0  0  0  0
   -0.7503   -0.8822    0.4788 O   0  0  0  0  0  0  0  0  0  0  0  0
    0.8848    1.6898   -2.1384 O   0  0  0  0  0  0  0  0  0  0  0  0
   -0.1918    2.0887   -0.1987 O   0  0  0  0  0  0  0  0  0  0  0  0
    2.8399   -1.0889    1.1458 N   0  0  0  0  0  0  0  0  0  0  0  0
    3.3418    1.8124   -1.0805 N   0  0  0  0  0  0  0  0  0  0  0  0
    2.2178   -2.9629   -4.2521 N   0  0  0  0  0  0  0  0  0  0  0  0
    1.5677   -1.6572    0.6724 C   0  0  1  0  0  0  0  0  0  0  0  0
    1.4640   -2.9700    1.4644 C   0  0  0  0  0  0  0  0  0  0  0  0
    3.1790   -1.6552    2.4580 C   0  0  0  0  0  0  0  0  0  0  0  0
    2.0134   -2.5740    2.8311 C   0  0  0  0  0  0  0  0  0  0  0  0
    3.3945    0.3025   -0.9506 C   0  0  2  0  0  0  0  0  0  0  0  0
    3.6742   -0.1714    0.5256 C   0  0  0  0  0  0  0  0  0  0  0  0
    4.5950   -0.2215   -1.8161 C   0  0  0  0  0  0  0  0  0  0  0  0
    2.2325    2.5004   -0.3178 C   0  0  1  0  0  0  0  0  0  0  0  0
    4.5446   -0.0761   -3.3523 C   0  0  0  0  0  0  0  0  0  0  0  0
    0.3471   -0.7878    1.0132 C   0  0  0  0  0  0  0  0  0  0  0  0
    2.2943    4.0616   -0.4572 C   0  0  0  0  0  0  0  0  0  0  0  0
    3.3581   -0.7791   -4.0157 C   0  0  0  0  0  0  0  0  0  0  0  0
    1.1828    4.8979    0.2656 C   0  0  0  0  0  0  0  0  0  0  0  0
    0.8641    2.0612   -0.8526 C   0  0  0  0  0  0  0  0  0  0  0  0
    3.3582   -2.2711   -3.6801 C   0  0  0  0  0  0  0  0  0  0  0  0
    1.1045    4.7615    1.7724 C   0  0  0  0  0  0  0  0  0  0  0  0
    0.8446    3.5295    2.3792 C   0  0  0  0  0  0  0  0  0  0  0  0
    1.2873    5.8624    2.6174 C   0  0  0  0  0  0  0  0  0  0  0  0
    1.0041    3.3316    3.7463 C   0  0  0  0  0  0  0  0  0  0  0  0
    1.3985    5.6829    4.0026 C   0  0  0  0  0  0  0  0  0  0  0  0
    1.3184    4.4076    4.5584 C   0  0  0  0  0  0  0  0  0  0  0  0
  1 14  2  0  0  0  0
  2 18  1  0  0  0  0
  3 18  2  0  0  0  0
  4 22  1  0  0  0  0
  5 22  2  0  0  0  0
  6  9  1  0  0  0  0
  6 11  1  0  0  0  0
  6 14  1  0  0  0  0
  8 23  1  0  0  0  0
  9 10  1  0  0  0  0
  9 18  1  1  0  0  0
 10 12  1  0  0  0  0
 11 12  1  0  0  0  0
 13  7  1  1  0  0  0
 13 14  1  0  0  0  0
 13 15  1  0  0  0  0
 15 17  1  0  0  0  0
 16  7  1  6  0  0  0
 16 19  1  0  0  0  0
 16 22  1  0  0  0  0
 17 20  1  0  0  0  0
 19 21  1  0  0  0  0
 20 23  1  0  0  0  0
 21 24  1  0  0  0  0
 24 25  2  0  0  0  0
 24 26  1  0  0  0  0
 25 27  1  0  0  0  0
 26 28  2  0  0  0  0
 27 29  2  0  0  0  0
 28 29  1  0  0  0  0
M  END
