978
 OpenBabel10141417483D

 25 27  0  0  1  0  0  0  0  0999 V2000
    1.0408   -0.1423    0.2000 F   0  0  0  0  0  0  0  0  0  0  0  0
    5.1306   -2.4987   -0.2655 F   0  0  0  0  0  0  0  0  0  0  0  0
    6.5178    2.2394   -0.0712 O   0  0  0  0  0  0  0  0  0  0  0  0
    6.6359    4.7964   -0.0626 O   0  0  0  0  0  0  0  0  0  0  0  0
    4.7041    5.9512    0.0450 O   0  0  0  0  0  0  0  0  0  0  0  0
    2.2476   -2.5691   -0.1324 N   0  0  0  0  0  0  0  0  0  0  0  0
    1.3060   -5.3298    0.2641 N   0  0  0  0  0  0  0  0  0  0  0  0
    2.4569    2.3943    0.0968 N   0  0  0  0  0  0  0  0  0  0  0  0
    1.7577   -4.8328   -1.0583 C   0  0  3  0  0  0  0  0  0  0  0  0
    2.8022   -3.6922   -0.9210 C   0  0  0  0  0  0  0  0  0  0  0  0
    1.7170   -2.9918    1.1839 C   0  0  0  0  0  0  0  0  0  0  0  0
    0.7485   -4.1925    1.0272 C   0  0  0  0  0  0  0  0  0  0  0  0
    3.0239   -1.3862   -0.0685 C   0  0  0  0  0  0  0  0  0  0  0  0
    2.3519   -5.9966   -1.8510 C   0  0  0  0  0  0  0  0  0  0  0  0
    2.3792   -0.1274    0.0677 C   0  0  0  0  0  0  0  0  0  0  0  0
    3.0669    1.1125    0.0523 C   0  0  0  0  0  0  0  0  0  0  0  0
    4.4234   -1.3642   -0.1641 C   0  0  0  0  0  0  0  0  0  0  0  0
    4.4737    1.0395   -0.0284 C   0  0  0  0  0  0  0  0  0  0  0  0
    5.1451   -0.1803   -0.1305 C   0  0  0  0  0  0  0  0  0  0  0  0
    0.9883    2.5238    0.0073 C   0  0  0  0  0  0  0  0  0  0  0  0
    5.2884    2.2786   -0.0223 C   0  0  0  0  0  0  0  0  0  0  0  0
    3.2563    3.5340    0.0932 C   0  0  0  0  0  0  0  0  0  0  0  0
    4.5947    3.5737    0.0361 C   0  0  0  0  0  0  0  0  0  0  0  0
    0.3461    2.4955    1.3854 C   0  0  0  0  0  0  0  0  0  0  0  0
    5.2890    4.8779    0.0109 C   0  0  0  0  0  0  0  0  0  0  0  0
  1 15  1  0  0  0  0
  2 17  1  0  0  0  0
  3 21  2  0  0  0  0
  4 25  1  0  0  0  0
  5 25  2  0  0  0  0
  6 10  1  0  0  0  0
  6 11  1  0  0  0  0
  6 13  1  0  0  0  0
  7  9  1  0  0  0  0
  7 12  1  0  0  0  0
  8 16  1  0  0  0  0
  8 20  1  0  0  0  0
  8 22  1  0  0  0  0
  9 10  1  0  0  0  0
  9 14  1  0  0  0  0
 11 12  1  0  0  0  0
 13 15  1  0  0  0  0
 13 17  2  0  0  0  0
 15 16  2  0  0  0  0
 16 18  1  0  0  0  0
 17 19  1  0  0  0  0
 18 19  2  0  0  0  0
 18 21  1  0  0  0  0
 20 24  1  0  0  0  0
 21 23  1  0  0  0  0
 22 23  2  0  0  0  0
 23 25  1  0  0  0  0
M  END
