
 OpenBabel10141417523D

 50 55  0  0  0  0  0  0  0  0999 V2000
    1.4608   -0.3919    1.2666 C   0  0  0  0  0  0  0  0  0  0  0  0
    0.5763   -1.3834    1.7433 C   0  0  0  0  0  0  0  0  0  0  0  0
   -0.7607   -1.0891    1.2828 C   0  0  0  0  0  0  0  0  0  0  0  0
   -0.7309    0.0685    0.4731 C   0  0  0  0  0  0  0  0  0  0  0  0
    0.6775    0.6937    0.4809 C   0  0  0  0  0  0  0  0  0  0  0  0
   -1.9482   -1.7667    1.5159 C   0  0  0  0  0  0  0  0  0  0  0  0
   -3.1143   -1.2966    0.9095 C   0  0  0  0  0  0  0  0  0  0  0  0
   -3.0784   -0.1767    0.0650 C   0  0  0  0  0  0  0  0  0  0  0  0
   -1.8825    0.5106   -0.1645 C   0  0  0  0  0  0  0  0  0  0  0  0
    2.8237   -0.4661    1.5294 C   0  0  0  0  0  0  0  0  0  0  0  0
    3.2973   -1.5564    2.2632 C   0  0  0  0  0  0  0  0  0  0  0  0
    2.4155   -2.5353    2.7477 C   0  0  0  0  0  0  0  0  0  0  0  0
    1.0449   -2.4503    2.4935 C   0  0  0  0  0  0  0  0  0  0  0  0
    1.2288    0.9212   -0.9574 C   0  0  0  0  0  0  0  0  0  0  0  0
    1.9540   -0.0980   -1.5490 N   0  0  0  0  0  0  0  0  0  0  0  0
    1.0025    1.9570   -1.5860 O   0  0  0  0  0  0  0  0  0  0  0  0
    2.4531    0.0077   -2.9290 C   0  0  0  0  0  0  0  0  0  0  0  0
    3.7294   -0.7805   -3.2472 C   0  0  0  0  0  0  0  0  0  0  0  0
    4.1717   -1.4713   -2.1702 F   0  0  0  0  0  0  0  0  0  0  0  0
    3.5189   -1.6748   -4.2402 F   0  0  0  0  0  0  0  0  0  0  0  0
    4.7289    0.0394   -3.6434 F   0  0  0  0  0  0  0  0  0  0  0  0
    0.7145    1.9931    1.3541 C   0  0  0  0  0  0  0  0  0  0  0  0
   -0.2037    3.1830    0.9900 C   0  0  0  0  0  0  0  0  0  0  0  0
    0.0032    4.3449    1.9856 C   0  0  0  0  0  0  0  0  0  0  0  0
   -0.8733    5.5801    1.6859 C   0  0  0  0  0  0  0  0  0  0  0  0
   -0.6894    6.7025    2.6451 N   0  0  0  0  0  0  0  0  0  0  0  0
   -1.5644    7.8280    2.2984 C   0  0  0  0  0  0  0  0  0  0  0  0
   -1.5947    8.8264    3.4511 C   0  0  0  0  0  0  0  0  0  0  0  0
   -0.2152    9.3466    3.8577 C   0  0  0  0  0  0  0  0  0  0  0  0
    0.9777    8.5116    3.3648 C   0  0  0  0  0  0  0  0  0  0  0  0
    0.7032    7.1526    2.7023 C   0  0  0  0  0  0  0  0  0  0  0  0
   -0.1436    9.5453    5.3166 N   0  0  0  0  0  0  0  0  0  0  0  0
   -0.4448   10.7438    5.9509 C   0  0  0  0  0  0  0  0  0  0  0  0
   -0.2733   10.7722    7.4488 C   0  0  0  0  0  0  0  0  0  0  0  0
   -0.7949   11.7466    5.3256 O   0  0  0  0  0  0  0  0  0  0  0  0
   -1.0509   11.5490    8.3562 C   0  0  0  0  0  0  0  0  0  0  0  0
   -0.6982   11.4456    9.7329 C   0  0  0  0  0  0  0  0  0  0  0  0
    0.3835   10.6937   10.1950 C   0  0  0  0  0  0  0  0  0  0  0  0
    1.1508    9.9823    9.2940 C   0  0  0  0  0  0  0  0  0  0  0  0
    0.8234   10.0175    7.9395 C   0  0  0  0  0  0  0  0  0  0  0  0
   -2.1879   12.4676    8.0204 C   0  0  0  0  0  0  0  0  0  0  0  0
   -2.4123   13.6411    8.7810 C   0  0  0  0  0  0  0  0  0  0  0  0
   -3.4906   14.5033    8.5419 C   0  0  0  0  0  0  0  0  0  0  0  0
   -4.3723   14.2526    7.4909 C   0  0  0  0  0  0  0  0  0  0  0  0
   -4.1608   13.1098    6.7105 C   0  0  0  0  0  0  0  0  0  0  0  0
   -3.1090   12.2214    6.9932 C   0  0  0  0  0  0  0  0  0  0  0  0
   -5.5248   15.1790    7.1974 C   0  0  0  0  0  0  0  0  0  0  0  0
   -5.6075   16.2360    8.0555 F   0  0  0  0  0  0  0  0  0  0  0  0
   -5.4637   15.7202    5.9493 F   0  0  0  0  0  0  0  0  0  0  0  0
   -6.7314   14.5502    7.2732 F   0  0  0  0  0  0  0  0  0  0  0  0
  1  2  1  0  0  0  0
  1  5  1  0  0  0  0
  1 10  2  0  0  0  0
  2  3  1  0  0  0  0
  2 13  2  0  0  0  0
  3  4  1  0  0  0  0
  3  6  2  0  0  0  0
  4  5  1  0  0  0  0
  4  9  2  0  0  0  0
  6  7  1  0  0  0  0
  7  8  2  0  0  0  0
  8  9  1  0  0  0  0
 10 11  1  0  0  0  0
 11 12  2  0  0  0  0
 12 13  1  0  0  0  0
 14  5  1  0  0  0  0
 14 15  1  0  0  0  0
 14 16  2  0  0  0  0
 15 17  1  0  0  0  0
 17 18  1  0  0  0  0
 18 19  1  0  0  0  0
 18 20  1  0  0  0  0
 18 21  1  0  0  0  0
 22 23  1  0  0  0  0
 22  5  1  0  0  0  0
 23 24  1  0  0  0  0
 24 25  1  0  0  0  0
 25 26  1  0  0  0  0
 26 27  1  0  0  0  0
 26 31  1  0  0  0  0
 27 28  1  0  0  0  0
 28 29  1  0  0  0  0
 29 30  1  0  0  0  0
 29 32  1  0  0  0  0
 30 31  1  0  0  0  0
 32 33  1  0  0  0  0
 33 34  1  0  0  0  0
 33 35  2  0  0  0  0
 34 36  2  0  0  0  0
 34 40  1  0  0  0  0
 36 37  1  0  0  0  0
 36 41  1  0  0  0  0
 37 38  2  0  0  0  0
 38 39  1  0  0  0  0
 39 40  2  0  0  0  0
 41 42  2  0  0  0  0
 41 46  1  0  0  0  0
 42 43  1  0  0  0  0
 43 44  2  0  0  0  0
 44 45  1  0  0  0  0
 44 47  1  0  0  0  0
 45 46  2  0  0  0  0
 47 48  1  0  0  0  0
 47 49  1  0  0  0  0
 47 50  1  0  0  0  0
M  END
