836
 OpenBabel10141417493D

 34 37  0  0  0  0  0  0  0  0999 V2000
    1.8105    0.1430    5.5066 Cl  0  0  0  0  0  0  0  0  0  0  0  0
    7.0560   -3.6248    4.8993 O   0  0  0  0  0  0  0  0  0  0  0  0
   12.4671   -2.7435    3.1427 O   0  0  0  0  0  0  0  0  0  0  0  0
    9.0738   -0.7033    2.4706 N   0  0  0  0  0  0  0  0  0  0  0  0
   14.4846   -3.0691    2.2637 N   0  0  0  0  0  0  0  0  0  0  0  0
    7.2143   -2.3657    4.2162 C   0  0  0  0  0  0  0  0  0  0  0  0
    8.4932   -1.6830    4.7591 C   0  0  0  0  0  0  0  0  0  0  0  0
    7.4878   -2.6699    2.7294 C   0  0  0  0  0  0  0  0  0  0  0  0
    8.9637   -0.4863    3.9215 C   0  0  0  0  0  0  0  0  0  0  0  0
    7.8798   -1.4026    1.9608 C   0  0  0  0  0  0  0  0  0  0  0  0
   10.3463   -1.3237    2.0161 C   0  0  0  0  0  0  0  0  0  0  0  0
   11.6098   -0.4032    2.1937 C   0  0  0  0  0  0  0  0  0  0  0  0
   13.0385   -0.9153    1.6057 C   0  0  0  0  0  0  0  0  0  0  0  0
    5.8766   -1.6593    4.5008 C   0  0  0  0  0  0  0  0  0  0  0  0
   12.8014   -1.1009    0.0561 C   0  0  0  0  0  0  0  0  0  0  0  0
   14.1415    0.2050    1.8528 C   0  0  0  0  0  0  0  0  0  0  0  0
   13.3318   -2.2898    2.4026 C   0  0  0  0  0  0  0  0  0  0  0  0
    4.7517   -1.8418    3.6667 C   0  0  0  0  0  0  0  0  0  0  0  0
    5.6698   -0.9146    5.6781 C   0  0  0  0  0  0  0  0  0  0  0  0
   13.0217   -2.3131   -0.6159 C   0  0  0  0  0  0  0  0  0  0  0  0
   14.0961    1.1375    2.9131 C   0  0  0  0  0  0  0  0  0  0  0  0
   12.3513   -0.0111   -0.7350 C   0  0  0  0  0  0  0  0  0  0  0  0
   15.1929    0.3922    0.9241 C   0  0  0  0  0  0  0  0  0  0  0  0
    3.5051   -1.2765    3.9648 C   0  0  0  0  0  0  0  0  0  0  0  0
    4.4223   -0.3497    5.9831 C   0  0  0  0  0  0  0  0  0  0  0  0
    3.3462   -0.5301    5.1230 C   0  0  0  0  0  0  0  0  0  0  0  0
   12.7788   -2.4398   -1.9933 C   0  0  0  0  0  0  0  0  0  0  0  0
   14.9763    2.2403    2.9708 C   0  0  0  0  0  0  0  0  0  0  0  0
   12.1092   -0.1395   -2.1103 C   0  0  0  0  0  0  0  0  0  0  0  0
   16.0758    1.4818    0.9872 C   0  0  0  0  0  0  0  0  0  0  0  0
   15.7837   -2.6132    1.8244 C   0  0  0  0  0  0  0  0  0  0  0  0
   14.4873   -4.4033    2.8749 C   0  0  0  0  0  0  0  0  0  0  0  0
   12.3187   -1.3589   -2.7396 C   0  0  0  0  0  0  0  0  0  0  0  0
   15.9492    2.4260    1.9948 C   0  0  0  0  0  0  0  0  0  0  0  0
  1 26  1  0  0  0  0
  2  6  1  0  0  0  0
  3 17  2  0  0  0  0
  4  9  1  0  0  0  0
  4 10  1  0  0  0  0
  4 11  1  0  0  0  0
  5 17  1  0  0  0  0
  5 31  1  0  0  0  0
  5 32  1  0  0  0  0
  6  7  1  0  0  0  0
  6  8  1  0  0  0  0
  6 14  1  0  0  0  0
  7  9  1  0  0  0  0
  8 10  1  0  0  0  0
 11 12  1  0  0  0  0
 12 13  1  0  0  0  0
 13 15  1  0  0  0  0
 13 16  1  0  0  0  0
 13 17  1  0  0  0  0
 14 18  2  0  0  0  0
 14 19  1  0  0  0  0
 15 20  2  0  0  0  0
 15 22  1  0  0  0  0
 16 21  2  0  0  0  0
 16 23  1  0  0  0  0
 18 24  1  0  0  0  0
 19 25  2  0  0  0  0
 20 27  1  0  0  0  0
 21 28  1  0  0  0  0
 22 29  2  0  0  0  0
 23 30  2  0  0  0  0
 24 26  2  0  0  0  0
 25 26  1  0  0  0  0
 27 33  2  0  0  0  0
 28 34  2  0  0  0  0
 29 33  1  0  0  0  0
 30 34  1  0  0  0  0
M  END
