186
 OpenBabel10141417503D

 21 23  0  0  1  0  0  0  0  0999 V2000
    0.9112    0.2031   -0.3931 Cl  0  0  0  0  0  0  0  0  0  0  0  0
    4.6825    1.6559    3.2305 Cl  0  0  0  0  0  0  0  0  0  0  0  0
    8.3763    2.6651   -1.7740 O   0  0  0  0  0  0  0  0  0  0  0  0
    8.9513    0.5012   -0.1899 O   0  0  0  0  0  0  0  0  0  0  0  0
    6.8046   -0.1232    0.0486 N   0  0  0  0  0  0  0  0  0  0  0  0
    6.6075    2.9085   -0.1965 N   0  0  0  0  0  0  0  0  0  0  0  0
    4.7508    1.2763   -0.0057 C   0  0  0  0  0  0  0  0  0  0  0  0
    5.4680    2.5548    0.2932 C   0  0  0  0  0  0  0  0  0  0  0  0
    5.4128    0.0351   -0.0154 C   0  0  0  0  0  0  0  0  0  0  0  0
    4.8215    3.5324    1.2197 C   0  0  0  0  0  0  0  0  0  0  0  0
    7.2813    2.0281   -1.1362 C   0  0  3  0  0  0  0  0  0  0  0  0
    3.3530    1.3209   -0.1447 C   0  0  0  0  0  0  0  0  0  0  0  0
    7.7606    0.7678   -0.3701 C   0  0  0  0  0  0  0  0  0  0  0  0
    4.6563   -1.1440   -0.0648 C   0  0  0  0  0  0  0  0  0  0  0  0
    2.6226    0.1388   -0.2379 C   0  0  0  0  0  0  0  0  0  0  0  0
    3.2658   -1.0930   -0.1829 C   0  0  0  0  0  0  0  0  0  0  0  0
    4.4159    3.2080    2.5211 C   0  0  0  0  0  0  0  0  0  0  0  0
    4.6420    4.8390    0.7396 C   0  0  0  0  0  0  0  0  0  0  0  0
    3.8011    4.1813    3.3163 C   0  0  0  0  0  0  0  0  0  0  0  0
    4.0296    5.8039    1.5398 C   0  0  0  0  0  0  0  0  0  0  0  0
    3.6036    5.4735    2.8248 C   0  0  0  0  0  0  0  0  0  0  0  0
  1 15  1  0  0  0  0
  2 17  1  0  0  0  0
  3 11  1  0  0  0  0
  4 13  2  0  0  0  0
  5  9  1  0  0  0  0
  5 13  1  0  0  0  0
  6  8  2  0  0  0  0
  6 11  1  0  0  0  0
  7  8  1  0  0  0  0
  7  9  2  0  0  0  0
  7 12  1  0  0  0  0
  8 10  1  0  0  0  0
  9 14  1  0  0  0  0
 10 17  1  0  0  0  0
 10 18  2  0  0  0  0
 11 13  1  0  0  0  0
 12 15  2  0  0  0  0
 14 16  2  0  0  0  0
 15 16  1  0  0  0  0
 17 19  2  0  0  0  0
 18 20  1  0  0  0  0
 19 21  1  0  0  0  0
 20 21  2  0  0  0  0
M  END
