5282204
 OpenBabel10141417493D

 23 25  0  0  1  0  0  0  0  0999 V2000
    0.2107    0.3486   -0.2150 Cl  0  0  0  0  0  0  0  0  0  0  0  0
    5.6327    1.5241   -0.0127 S   0  0  0  0  0  0  0  0  0  0  0  0
    2.5666   -1.3318    0.3569 S   0  0  0  0  0  0  0  0  0  0  0  0
    5.3741    2.7239    0.7560 O   0  0  0  0  0  0  0  0  0  0  0  0
    5.9223    1.5443   -1.4242 O   0  0  0  0  0  0  0  0  0  0  0  0
    5.2508   -2.7107    0.9407 O   0  0  0  0  0  0  0  0  0  0  0  0
    7.6996   -2.7070   -0.5726 O   0  0  0  0  0  0  0  0  0  0  0  0
    6.8124    0.5615    0.7972 N   0  0  0  0  0  0  0  0  0  0  0  0
    8.9578   -0.7546   -0.2327 N   0  0  0  0  0  0  0  0  0  0  0  0
   10.3595   -2.5429   -0.9634 N   0  0  0  0  0  0  0  0  0  0  0  0
    4.1491    0.6492    0.0684 C   0  0  0  0  0  0  0  0  0  0  0  0
    6.6518   -0.8425    0.4198 C   0  0  0  0  0  0  0  0  0  0  0  0
    4.1564   -0.7023    0.3373 C   0  0  0  0  0  0  0  0  0  0  0  0
    5.3193   -1.5417    0.5733 C   0  0  0  0  0  0  0  0  0  0  0  0
    2.8467    1.1772   -0.1521 C   0  0  0  0  0  0  0  0  0  0  0  0
    6.8604    0.7946    2.2633 C   0  0  0  0  0  0  0  0  0  0  0  0
    7.7573   -1.4179   -0.0948 C   0  0  0  0  0  0  0  0  0  0  0  0
    1.9092    0.1840   -0.0255 C   0  0  0  0  0  0  0  0  0  0  0  0
   10.1855   -1.2219   -0.7190 C   0  0  0  0  0  0  0  0  0  0  0  0
   11.1615   -0.2832   -1.0487 C   0  0  0  0  0  0  0  0  0  0  0  0
   12.3617   -0.7053   -1.6131 C   0  0  0  0  0  0  0  0  0  0  0  0
   11.5440   -2.9308   -1.4974 C   0  0  0  0  0  0  0  0  0  0  0  0
   12.5632   -2.0584   -1.8380 C   0  0  0  0  0  0  0  0  0  0  0  0
  1 18  1  0  0  0  0
  2  4  2  0  0  0  0
  2  5  2  0  0  0  0
  2  8  1  0  0  0  0
  2 11  1  0  0  0  0
  3 13  1  0  0  0  0
  3 18  1  0  0  0  0
  6 14  2  0  0  0  0
  7 17  1  0  0  0  0
  8 12  1  0  0  0  0
  8 16  1  0  0  0  0
  9 17  1  0  0  0  0
  9 19  1  0  0  0  0
 10 19  1  0  0  0  0
 10 22  2  0  0  0  0
 11 13  2  0  0  0  0
 11 15  1  0  0  0  0
 12 14  1  0  0  0  0
 12 17  2  0  0  0  0
 13 14  1  0  0  0  0
 15 18  2  0  0  0  0
 19 20  2  0  0  0  0
 20 21  1  0  0  0  0
 21 23  2  0  0  0  0
 22 23  1  0  0  0  0
M  END
