678
 OpenBabel10141417543D

 30 33  0  0  0  0  0  0  0  0999 V2000
    2.3696    1.9155   -1.4988 Cl  0  0  0  0  0  0  0  0  0  0  0  0
    3.2053   -1.5525    0.9913 O   0  0  0  0  0  0  0  0  0  0  0  0
    5.3439    0.4200    0.4482 N   0  0  0  0  0  0  0  0  0  0  0  0
    5.0373    1.7078   -1.3244 N   0  0  0  0  0  0  0  0  0  0  0  0
    3.4100    2.9217    5.2556 N   0  0  0  0  0  0  0  0  0  0  0  0
    2.9529    4.9557    6.1272 N   0  0  0  0  0  0  0  0  0  0  0  0
    2.2507    3.4430    4.8491 N   0  0  0  0  0  0  0  0  0  0  0  0
    1.9177    4.6280    5.3612 N   0  0  0  0  0  0  0  0  0  0  0  0
    5.9377    1.0545   -0.6206 C   0  0  0  0  0  0  0  0  0  0  0  0
    7.3861    0.9525   -0.9888 C   0  0  0  0  0  0  0  0  0  0  0  0
    6.0378   -0.1437    1.5992 C   0  0  0  0  0  0  0  0  0  0  0  0
    7.5681    1.0108   -2.5136 C   0  0  0  0  0  0  0  0  0  0  0  0
    3.9740    0.5068    0.2624 C   0  0  0  0  0  0  0  0  0  0  0  0
    6.2938    0.8653    2.7045 C   0  0  0  0  0  0  0  0  0  0  0  0
    6.8294   -0.1245   -3.2376 C   0  0  0  0  0  0  0  0  0  0  0  0
    3.8215    1.3508   -0.8172 C   0  0  0  0  0  0  0  0  0  0  0  0
    2.9572   -0.1602    1.0965 C   0  0  0  0  0  0  0  0  0  0  0  0
    6.9286    0.4350    3.8760 C   0  0  0  0  0  0  0  0  0  0  0  0
    5.8574    2.1974    2.6518 C   0  0  0  0  0  0  0  0  0  0  0  0
    6.4433    2.5650    4.9874 C   0  0  0  0  0  0  0  0  0  0  0  0
    6.9837    1.2662    5.0011 C   0  0  0  0  0  0  0  0  0  0  0  0
    5.9596    3.0409    3.7644 C   0  0  0  0  0  0  0  0  0  0  0  0
    6.9953   -0.0359   -4.7434 C   0  0  0  0  0  0  0  0  0  0  0  0
    6.3463    3.3444    6.2479 C   0  0  0  0  0  0  0  0  0  0  0  0
    5.1531    3.9468    6.7348 C   0  0  0  0  0  0  0  0  0  0  0  0
    7.5027    3.4331    7.0576 C   0  0  0  0  0  0  0  0  0  0  0  0
    5.1669    4.5879    7.9960 C   0  0  0  0  0  0  0  0  0  0  0  0
    7.4888    4.0501    8.3100 C   0  0  0  0  0  0  0  0  0  0  0  0
    3.8702    3.9273    6.0304 C   0  0  0  0  0  0  0  0  0  0  0  0
    6.3184    4.6238    8.7815 C   0  0  0  0  0  0  0  0  0  0  0  0
  1 16  1  0  0  0  0
  2 17  1  0  0  0  0
  3  9  1  0  0  0  0
  3 11  1  0  0  0  0
  3 13  1  0  0  0  0
  4  9  2  0  0  0  0
  4 16  1  0  0  0  0
  5  7  1  0  0  0  0
  5 29  2  0  0  0  0
  6  8  2  0  0  0  0
  6 29  1  0  0  0  0
  7  8  1  0  0  0  0
  9 10  1  0  0  0  0
 10 12  1  0  0  0  0
 11 14  1  0  0  0  0
 12 15  1  0  0  0  0
 13 16  2  0  0  0  0
 13 17  1  0  0  0  0
 14 18  2  0  0  0  0
 14 19  1  0  0  0  0
 15 23  1  0  0  0  0
 18 21  1  0  0  0  0
 19 22  2  0  0  0  0
 20 21  2  0  0  0  0
 20 22  1  0  0  0  0
 20 24  1  0  0  0  0
 24 25  1  0  0  0  0
 24 26  2  0  0  0  0
 25 27  2  0  0  0  0
 25 29  1  0  0  0  0
 26 28  1  0  0  0  0
 27 30  1  0  0  0  0
 28 30  2  0  0  0  0
M  END
