
 OpenBabel10141417523D

 27 30  0  0  1  0  0  0  0  0999 V2000
    3.3288    1.4599   -3.6471 C   0  0  0  0  0  0  0  0  0  0  0  0
    4.3856    1.2682   -2.8458 C   0  0  0  0  0  0  0  0  0  0  0  0
    4.2391    1.3073   -1.3761 C   0  0  0  0  0  0  0  0  0  0  0  0
    2.8835    1.5284   -0.8268 C   0  0  0  0  0  0  0  0  0  0  0  0
    1.8194    1.7286   -1.6252 C   0  0  0  0  0  0  0  0  0  0  0  0
    1.9195    1.7532   -3.1510 C   0  0  1  0  0  0  0  0  0  0  0  0
    0.8813    0.7434   -3.7637 C   0  0  2  0  0  0  0  0  0  0  0  0
    0.4356    1.8811   -1.0418 C   0  0  0  0  0  0  0  0  0  0  0  0
   -0.5801    0.9282   -1.6844 C   0  0  0  0  0  0  0  0  0  0  0  0
   -0.5510    1.0095   -3.2252 C   0  0  1  0  0  0  0  0  0  0  0  0
    0.0551   -1.7201   -3.4878 C   0  0  0  0  0  0  0  0  0  0  0  0
    1.2486   -0.7709   -3.6631 C   0  0  2  0  0  0  0  0  0  0  0  0
   -1.5880    0.1649   -4.0163 C   0  0  1  0  0  0  0  0  0  0  0  0
   -1.2204   -1.3386   -4.2587 C   0  0  1  0  0  0  0  0  0  0  0  0
   -2.4890   -2.1337   -3.7641 C   0  0  2  0  0  0  0  0  0  0  0  0
   -2.9975    0.1760   -3.4121 C   0  0  0  0  0  0  0  0  0  0  0  0
   -3.1424   -1.1837   -2.7516 C   0  0  0  0  0  0  0  0  0  0  0  0
    5.2087    1.1659   -0.6397 O   0  0  0  0  0  0  0  0  0  0  0  0
    1.6317    3.1981   -3.6363 C   0  0  0  0  0  0  0  0  0  0  0  0
   -0.9593   -1.5822   -5.7632 C   0  0  0  0  0  0  0  0  0  0  0  0
    2.1395   -1.0541   -2.5889 O   0  0  0  0  0  0  0  0  0  0  0  0
   -2.1695   -3.4975   -3.0995 C   0  0  0  0  0  0  0  0  0  0  0  0
   -3.4219   -2.2898   -4.8447 O   0  0  0  0  0  0  0  0  0  0  0  0
   -2.0723   -4.4740   -4.0435 O   0  0  0  0  0  0  0  0  0  0  0  0
   -2.0273   -3.6719   -1.8989 O   0  0  0  0  0  0  0  0  0  0  0  0
   -1.7110   -5.7555   -3.5341 C   0  0  0  0  0  0  0  0  0  0  0  0
    0.0555   -5.8943   -3.4802 Cl  0  0  0  0  0  0  0  0  0  0  0  0
  1  2  2  0  0  0  0
  1  6  1  0  0  0  0
  2  3  1  0  0  0  0
  3  4  1  0  0  0  0
  3 18  2  0  0  0  0
  4  5  2  0  0  0  0
  5  8  1  0  0  0  0
  6  5  1  0  0  0  0
  6 19  1  1  0  0  0
  7  6  1  1  0  0  0
  7 10  1  0  0  0  0
  8  9  1  0  0  0  0
 10  9  1  6  0  0  0
 10 13  1  0  0  0  0
 11 12  1  0  0  0  0
 11 14  1  0  0  0  0
 12  7  1  0  0  0  0
 12 21  1  1  0  0  0
 13 16  1  1  0  0  0
 14 13  1  0  0  0  0
 14 20  1  1  0  0  0
 15 14  1  0  0  0  0
 15 17  1  0  0  0  0
 15 23  1  6  0  0  0
 15 22  1  0  0  0  0
 16 17  1  0  0  0  0
 22 24  1  0  0  0  0
 22 25  2  0  0  0  0
 24 26  1  0  0  0  0
 26 27  1  0  0  0  0
M  END
