408
 OpenBabel10141417553D

 23 26  0  0  0  0  0  0  0  0999 V2000
    0.8944   -1.0538    0.8217 Cl  0  0  0  0  0  0  0  0  0  0  0  0
    6.6095   -0.0019   -0.0358 O   0  0  0  0  0  0  0  0  0  0  0  0
    3.9821    3.2193   -0.3065 N   0  0  0  0  0  0  0  0  0  0  0  0
    4.8397    4.9818   -2.5494 N   0  0  0  0  0  0  0  0  0  0  0  0
    5.9454    2.7071    0.8458 N   0  0  0  0  0  0  0  0  0  0  0  0
    3.5222    2.9653   -1.6911 C   0  0  0  0  0  0  0  0  0  0  0  0
    4.2356    4.6622   -0.0877 C   0  0  0  0  0  0  0  0  0  0  0  0
    4.5213    3.5464   -2.7204 C   0  0  0  0  0  0  0  0  0  0  0  0
    5.2231    5.2249   -1.1367 C   0  0  0  0  0  0  0  0  0  0  0  0
    4.8306    2.2887    0.3126 C   0  0  0  0  0  0  0  0  0  0  0  0
    3.7329    5.8388   -2.9653 C   0  0  0  0  0  0  0  0  0  0  0  0
    4.3764    0.8623    0.3638 C   0  0  0  0  0  0  0  0  0  0  0  0
    5.2656   -0.1940    0.1618 C   0  0  0  0  0  0  0  0  0  0  0  0
    6.8736    1.8725    1.4839 C   0  0  0  0  0  0  0  0  0  0  0  0
    3.0184    0.5919    0.5826 C   0  0  0  0  0  0  0  0  0  0  0  0
    7.2287    0.5929    1.0391 C   0  0  0  0  0  0  0  0  0  0  0  0
    4.8008   -1.5117    0.1234 C   0  0  0  0  0  0  0  0  0  0  0  0
    2.5635   -0.7248    0.5655 C   0  0  0  0  0  0  0  0  0  0  0  0
    3.4465   -1.7778    0.3293 C   0  0  0  0  0  0  0  0  0  0  0  0
    7.5611    2.4001    2.5824 C   0  0  0  0  0  0  0  0  0  0  0  0
    8.2507   -0.1332    1.6599 C   0  0  0  0  0  0  0  0  0  0  0  0
    8.5680    1.6724    3.2239 C   0  0  0  0  0  0  0  0  0  0  0  0
    8.9156    0.4060    2.7592 C   0  0  0  0  0  0  0  0  0  0  0  0
  1 18  1  0  0  0  0
  2 13  1  0  0  0  0
  2 16  1  0  0  0  0
  3  6  1  0  0  0  0
  3  7  1  0  0  0  0
  3 10  1  0  0  0  0
  4  8  1  0  0  0  0
  4  9  1  0  0  0  0
  4 11  1  0  0  0  0
  5 10  2  0  0  0  0
  5 14  1  0  0  0  0
  6  8  1  0  0  0  0
  7  9  1  0  0  0  0
 10 12  1  0  0  0  0
 12 13  2  0  0  0  0
 12 15  1  0  0  0  0
 13 17  1  0  0  0  0
 14 16  1  0  0  0  0
 14 20  2  0  0  0  0
 15 18  2  0  0  0  0
 16 21  2  0  0  0  0
 17 19  2  0  0  0  0
 18 19  1  0  0  0  0
 20 22  1  0  0  0  0
 21 23  1  0  0  0  0
 22 23  2  0  0  0  0
M  END
