1046
 OpenBabel10141417493D

 27 28  0  0  1  0  0  0  0  0999 V2000
    1.7434    0.3596   -3.4916 F   0  0  0  0  0  0  0  0  0  0  0  0
    0.7241    0.3165   -1.5759 F   0  0  0  0  0  0  0  0  0  0  0  0
    4.2836   -0.1929   -2.2404 O   0  0  0  0  0  0  0  0  0  0  0  0
    3.2888   -0.0177   -0.2291 O   0  0  0  0  0  0  0  0  0  0  0  0
    4.3699   -2.2461   -6.5573 O   0  0  0  0  0  0  0  0  0  0  0  0
   12.0413   -8.3138   -8.5065 O   0  0  0  0  0  0  0  0  0  0  0  0
   12.8408   -6.2703   -8.0808 O   0  0  0  0  0  0  0  0  0  0  0  0
    4.3408   -2.5572   -3.0512 C   0  0  1  0  0  0  0  0  0  0  0  0
    4.7570   -1.0971   -3.2242 C   0  0  1  0  0  0  0  0  0  0  0  0
    4.7477   -3.2330   -4.3775 C   0  0  1  0  0  0  0  0  0  0  0  0
    2.8377   -2.6423   -2.7822 C   0  0  0  0  0  0  0  0  0  0  0  0
    4.4036   -0.7458   -4.6687 C   0  0  0  0  0  0  0  0  0  0  0  0
    3.0213   -0.3871   -1.5959 C   0  0  2  0  0  0  0  0  0  0  0  0
    2.5286   -1.8427   -1.5342 C   0  0  0  0  0  0  0  0  0  0  0  0
    4.4948   -2.0920   -5.3486 C   0  0  0  0  0  0  0  0  0  0  0  0
    6.2274   -3.6733   -4.3907 C   0  0  0  0  0  0  0  0  0  0  0  0
    1.9263    0.5838   -2.1638 C   0  0  0  0  0  0  0  0  0  0  0  0
    6.6490   -4.3714   -5.6981 C   0  0  0  0  0  0  0  0  0  0  0  0
    2.2599    2.0576   -1.9307 C   0  0  0  0  0  0  0  0  0  0  0  0
    8.1271   -4.8012   -5.6890 C   0  0  0  0  0  0  0  0  0  0  0  0
    1.1424    3.0004   -2.3895 C   0  0  0  0  0  0  0  0  0  0  0  0
    8.5573   -5.4647   -7.0077 C   0  0  0  0  0  0  0  0  0  0  0  0
    1.4769    4.4771   -2.1483 C   0  0  0  0  0  0  0  0  0  0  0  0
   10.0307   -5.8958   -6.9875 C   0  0  0  0  0  0  0  0  0  0  0  0
   10.4323   -6.5790   -8.2959 C   0  0  0  0  0  0  0  0  0  0  0  0
    1.7065    4.8114   -0.6805 C   0  0  0  0  0  0  0  0  0  0  0  0
   11.8727   -6.9982   -8.2746 C   0  0  0  0  0  0  0  0  0  0  0  0
  1 17  1  0  0  0  0
  2 17  1  0  0  0  0
  3 13  1  0  0  0  0
  5 15  2  0  0  0  0
  6 27  1  0  0  0  0
  7 27  2  0  0  0  0
  8  9  1  0  0  0  0
  8 10  1  0  0  0  0
  8 11  1  1  0  0  0
  9  3  1  1  0  0  0
  9 12  1  0  0  0  0
 10 15  1  0  0  0  0
 10 16  1  1  0  0  0
 11 14  1  0  0  0  0
 12 15  1  0  0  0  0
 13 14  1  0  0  0  0
 13 17  1  6  0  0  0
 13  4  1  0  0  0  0
 16 18  1  0  0  0  0
 17 19  1  0  0  0  0
 18 20  1  0  0  0  0
 19 21  1  0  0  0  0
 20 22  1  0  0  0  0
 21 23  1  0  0  0  0
 22 24  1  0  0  0  0
 23 26  1  0  0  0  0
 24 25  1  0  0  0  0
 25 27  1  0  0  0  0
M  END
