
 OpenBabel10141417483D

 24 26  0  0  0  0  0  0  0  0999 V2000
    0.2017    2.0524   -0.5069 S   0  0  0  0  0  0  0  0  0  0  0  0
    0.0113   -2.2559   -0.6250 O   0  0  0  0  0  0  0  0  0  0  0  0
   -4.4002   -5.6833   -0.1101 N   0  0  0  0  0  0  0  0  0  0  0  0
   -2.3639   -2.4794    0.4745 N   0  0  0  0  0  0  0  0  0  0  0  0
   -3.3131   -4.7755    0.3428 C   0  0  0  0  0  0  0  0  0  0  0  0
   -3.5606   -3.2594    0.1121 C   0  0  0  0  0  0  0  0  0  0  0  0
   -2.3898   -1.0710    0.3144 C   0  0  0  0  0  0  0  0  0  0  0  0
   -1.2092   -0.3270    0.0074 C   0  0  0  0  0  0  0  0  0  0  0  0
   -4.6762   -5.5853   -1.5522 C   0  0  0  0  0  0  0  0  0  0  0  0
   -4.1289   -7.0592    0.3503 C   0  0  0  0  0  0  0  0  0  0  0  0
   -1.2360    1.0880   -0.0548 C   0  0  0  0  0  0  0  0  0  0  0  0
   -2.4445    1.7756    0.2132 C   0  0  0  0  0  0  0  0  0  0  0  0
    0.0556   -1.0670   -0.2875 C   0  0  0  0  0  0  0  0  0  0  0  0
   -3.5515   -0.3516    0.6191 C   0  0  0  0  0  0  0  0  0  0  0  0
    1.3867   -0.4340   -0.1633 C   0  0  0  0  0  0  0  0  0  0  0  0
   -3.5858    1.0395    0.5522 C   0  0  0  0  0  0  0  0  0  0  0  0
    1.5436    0.9469   -0.1994 C   0  0  0  0  0  0  0  0  0  0  0  0
   -3.5190   -5.9139   -2.4910 C   0  0  0  0  0  0  0  0  0  0  0  0
   -5.2325   -8.0703    0.0387 C   0  0  0  0  0  0  0  0  0  0  0  0
   -2.6147    3.2706    0.0827 C   0  0  0  0  0  0  0  0  0  0  0  0
    2.5138   -1.2630   -0.0223 C   0  0  0  0  0  0  0  0  0  0  0  0
    2.8311    1.4929   -0.0669 C   0  0  0  0  0  0  0  0  0  0  0  0
    3.7897   -0.7128    0.0985 C   0  0  0  0  0  0  0  0  0  0  0  0
    3.9483    0.6686    0.0842 C   0  0  0  0  0  0  0  0  0  0  0  0
  1 11  1  0  0  0  0
  1 17  1  0  0  0  0
  2 13  2  0  0  0  0
  3  5  1  0  0  0  0
  3  9  1  0  0  0  0
  3 10  1  0  0  0  0
  4  6  1  0  0  0  0
  4  7  1  0  0  0  0
  5  6  1  0  0  0  0
  7  8  2  0  0  0  0
  7 14  1  0  0  0  0
  8 11  1  0  0  0  0
  8 13  1  0  0  0  0
  9 18  1  0  0  0  0
 10 19  1  0  0  0  0
 11 12  2  0  0  0  0
 12 16  1  0  0  0  0
 12 20  1  0  0  0  0
 13 15  1  0  0  0  0
 14 16  2  0  0  0  0
 15 17  1  0  0  0  0
 15 21  2  0  0  0  0
 17 22  2  0  0  0  0
 21 23  1  0  0  0  0
 22 24  1  0  0  0  0
 23 24  2  0  0  0  0
M  END
