
 OpenBabel10141417583D

 21 23  0  0  0  0  0  0  0  0999 V2000
   -0.5357    2.0232   -1.5510 C   0  0  0  0  0  0  0  0  0  0  0  0
   -1.7381    1.4736   -2.0070 C   0  0  0  0  0  0  0  0  0  0  0  0
   -2.1611    0.2393   -1.5302 C   0  0  0  0  0  0  0  0  0  0  0  0
   -1.4025   -0.4437   -0.5880 C   0  0  0  0  0  0  0  0  0  0  0  0
   -0.2032    0.1096   -0.1268 C   0  0  0  0  0  0  0  0  0  0  0  0
   -3.6340   -0.4400   -2.1007 Cl  0  0  0  0  0  0  0  0  0  0  0  0
    0.6487   -0.7874    1.0849 Cl  0  0  0  0  0  0  0  0  0  0  0  0
    0.9463    4.4546    0.6964 S   0  0  0  0  0  0  0  0  0  0  0  0
    1.3990    2.7682    1.1785 C   0  0  0  0  0  0  0  0  0  0  0  0
    2.5216    2.9653   -1.2699 S   0  0  0  0  0  0  0  0  0  0  0  0
    1.9517    4.5550   -0.7302 C   0  0  0  0  0  0  0  0  0  0  0  0
    0.2717    1.3475   -0.6136 C   0  0  0  0  0  0  0  0  0  0  0  0
    1.5787    1.9368   -0.0871 C   0  0  3  0  0  0  0  0  0  0  0  0
    2.2624    5.6977   -1.4058 C   0  0  0  0  0  0  0  0  0  0  0  0
    1.8664    7.0341   -1.1075 N   0  0  0  0  0  0  0  0  0  0  0  0
    2.1683    8.1654   -1.8676 C   0  0  0  0  0  0  0  0  0  0  0  0
    1.5777    9.2434   -1.2595 C   0  0  0  0  0  0  0  0  0  0  0  0
    0.9311    8.8537   -0.1343 N   0  0  0  0  0  0  0  0  0  0  0  0
    1.1267    7.5566   -0.0581 C   0  0  0  0  0  0  0  0  0  0  0  0
    3.0885    5.5676   -2.5808 C   0  0  0  0  0  0  0  0  0  0  0  0
    3.7483    5.5009   -3.5327 N   0  0  0  0  0  0  0  0  0  0  0  0
  1  2  1  0  0  0  0
  1 12  2  0  0  0  0
  2  3  2  0  0  0  0
  3  4  1  0  0  0  0
  3  6  1  0  0  0  0
  4  5  2  0  0  0  0
  5  7  1  0  0  0  0
  5 12  1  0  0  0  0
  8  9  1  0  0  0  0
  8 11  1  0  0  0  0
  9 13  1  0  0  0  0
 10 11  1  0  0  0  0
 11 14  2  0  0  0  0
 12 13  1  0  0  0  0
 13 10  1  0  0  0  0
 14 15  1  0  0  0  0
 14 20  1  0  0  0  0
 15 16  1  0  0  0  0
 15 19  1  0  0  0  0
 16 17  2  0  0  0  0
 17 18  1  0  0  0  0
 18 19  2  0  0  0  0
 20 21  3  0  0  0  0
M  END
