
 OpenBabel10141419233D

 35 38  0  0  0  0  0  0  0  0999 V2000
    6.2612   -0.6780   -2.3559 C   0  0  0  0  0  0  0  0  0  0  0  0
    5.5184    0.4295   -1.6282 C   0  0  0  0  0  0  0  0  0  0  0  0
    6.2900    0.9373   -0.4029 C   0  0  0  0  0  0  0  0  0  0  0  0
    5.4895    2.0501    0.2947 C   0  0  0  0  0  0  0  0  0  0  0  0
    6.0744    2.6452    1.5232 N   0  0  0  0  0  0  0  0  0  0  0  0
    5.1396    3.6618    2.0698 C   0  0  0  0  0  0  0  0  0  0  0  0
    4.8206    4.8547    1.1385 C   0  0  0  0  0  0  0  0  0  0  0  0
    3.8415    5.8226    1.8151 C   0  0  0  0  0  0  0  0  0  0  0  0
    3.4678    6.9935    0.9179 C   0  0  0  0  0  0  0  0  0  0  0  0
    6.3669    1.5829    2.5387 C   0  0  0  0  0  0  0  0  0  0  0  0
    6.9510    1.9754    3.9390 C   0  0  3  0  0  0  0  0  0  0  0  0
    7.1899    0.7439    4.8207 C   0  0  0  0  0  0  0  0  0  0  0  0
    8.3263   -0.0861    4.8407 C   0  0  0  0  0  0  0  0  0  0  0  0
    9.6488   -0.0352    4.1866 C   0  0  0  0  0  0  0  0  0  0  0  0
   10.4711   -1.1012    4.6574 C   0  0  0  0  0  0  0  0  0  0  0  0
   11.8078   -1.2309    4.2979 C   0  0  0  0  0  0  0  0  0  0  0  0
   12.3507   -0.2957    3.4328 C   0  0  0  0  0  0  0  0  0  0  0  0
   11.5572    0.7379    2.9148 C   0  0  0  0  0  0  0  0  0  0  0  0
   10.2050    0.8512    3.2716 C   0  0  0  0  0  0  0  0  0  0  0  0
   14.0064   -0.3983    2.9821 Cl  0  0  0  0  0  0  0  0  0  0  0  0
    9.6169   -1.9378    5.5267 C   0  0  0  0  0  0  0  0  0  0  0  0
    9.9611   -3.2017    5.8626 C   0  0  0  0  0  0  0  0  0  0  0  0
    9.1131   -4.2207    6.5006 C   0  0  0  0  0  0  0  0  0  0  0  0
    8.3614   -5.0878    5.6878 C   0  0  0  0  0  0  0  0  0  0  0  0
    7.5864   -6.0845    6.2675 C   0  0  0  0  0  0  0  0  0  0  0  0
    7.5572   -6.2323    7.6524 C   0  0  0  0  0  0  0  0  0  0  0  0
    8.3026   -5.3688    8.4640 C   0  0  0  0  0  0  0  0  0  0  0  0
    9.0832   -4.3696    7.8863 C   0  0  0  0  0  0  0  0  0  0  0  0
    6.6082   -7.4751    8.3656 Cl  0  0  0  0  0  0  0  0  0  0  0  0
    8.3405   -1.2275    5.7343 C   0  0  0  0  0  0  0  0  0  0  0  0
    7.3136   -1.4750    6.6375 C   0  0  0  0  0  0  0  0  0  0  0  0
    6.2075   -0.6568    6.6108 C   0  0  0  0  0  0  0  0  0  0  0  0
    6.1245    0.4115    5.7004 C   0  0  0  0  0  0  0  0  0  0  0  0
    4.9150   -0.9373    7.7138 Cl  0  0  0  0  0  0  0  0  0  0  0  0
    8.0936    2.8178    3.8546 O   0  0  0  0  0  0  0  0  0  0  0  0
  1  2  1  0  0  0  0
  2  3  1  0  0  0  0
  3  4  1  0  0  0  0
  4  5  1  0  0  0  0
  5  6  1  0  0  0  0
  5 10  1  0  0  0  0
  6  7  1  0  0  0  0
  7  8  1  0  0  0  0
  8  9  1  0  0  0  0
 10 11  1  0  0  0  0
 11 12  1  0  0  0  0
 11 35  1  0  0  0  0
 12 13  2  0  0  0  0
 12 33  1  0  0  0  0
 13 14  1  0  0  0  0
 13 30  1  0  0  0  0
 14 15  2  0  0  0  0
 14 19  1  0  0  0  0
 15 16  1  0  0  0  0
 15 21  1  0  0  0  0
 16 17  2  0  0  0  0
 17 18  1  0  0  0  0
 17 20  1  0  0  0  0
 18 19  2  0  0  0  0
 21 22  2  0  0  0  0
 21 30  1  0  0  0  0
 22 23  1  0  0  0  0
 23 24  2  0  0  0  0
 23 28  1  0  0  0  0
 24 25  1  0  0  0  0
 25 26  2  0  0  0  0
 26 27  1  0  0  0  0
 26 29  1  0  0  0  0
 27 28  2  0  0  0  0
 30 31  2  0  0  0  0
 31 32  1  0  0  0  0
 32 33  2  0  0  0  0
 32 34  1  0  0  0  0
M  END
