
 OpenBabel10141417533D

 20 21  0  0  0  0  0  0  0  0999 V2000
    2.6905   -0.3295   -0.2271 C   0  0  0  0  0  0  0  0  0  0  0  0
    3.1043    0.7374    0.5928 C   0  0  0  0  0  0  0  0  0  0  0  0
    4.0212    1.6997    0.1658 C   0  0  0  0  0  0  0  0  0  0  0  0
    4.5593    1.6177   -1.1142 C   0  0  0  0  0  0  0  0  0  0  0  0
    4.1223    0.6105   -1.9757 C   0  0  0  0  0  0  0  0  0  0  0  0
    3.1808   -0.3402   -1.5456 C   0  0  0  0  0  0  0  0  0  0  0  0
    1.8603   -1.3535    0.3359 N   0  0  0  0  0  0  0  0  0  0  0  0
    2.5849   -1.4555   -2.7275 Cl  0  0  0  0  0  0  0  0  0  0  0  0
    2.6029    0.8388    1.8345 F   0  0  0  0  0  0  0  0  0  0  0  0
    2.1845   -2.7335    0.4959 C   0  0  0  0  0  0  0  0  0  0  0  0
    3.4254   -3.2545    0.0817 C   0  0  0  0  0  0  0  0  0  0  0  0
    1.2377   -3.6425    1.0290 C   0  0  0  0  0  0  0  0  0  0  0  0
    1.5496   -5.0198    1.0973 C   0  0  0  0  0  0  0  0  0  0  0  0
    2.7708   -5.5217    0.6400 C   0  0  0  0  0  0  0  0  0  0  0  0
    3.7151   -4.6218    0.1526 C   0  0  0  0  0  0  0  0  0  0  0  0
    3.0743   -6.9893    0.7227 C   0  0  0  0  0  0  0  0  0  0  0  0
   -0.1296   -3.2214    1.5423 C   0  0  0  0  0  0  0  0  0  0  0  0
   -1.2845   -3.2634    0.5748 C   0  0  0  0  0  0  0  0  0  0  0  0
   -2.4519   -3.2939    0.9483 O   0  0  0  0  0  0  0  0  0  0  0  0
   -0.9813   -3.2008   -0.7420 O   0  0  0  0  0  0  0  0  0  0  0  0
  1  2  1  0  0  0  0
  1  6  2  0  0  0  0
  1  7  1  0  0  0  0
  2  3  2  0  0  0  0
  2  9  1  0  0  0  0
  3  4  1  0  0  0  0
  4  5  2  0  0  0  0
  5  6  1  0  0  0  0
  6  8  1  0  0  0  0
  7 10  1  0  0  0  0
 10 11  2  0  0  0  0
 10 12  1  0  0  0  0
 12 13  2  0  0  0  0
 12 17  1  0  0  0  0
 13 14  1  0  0  0  0
 14 15  2  0  0  0  0
 14 16  1  0  0  0  0
 15 11  1  0  0  0  0
 17 18  1  0  0  0  0
 18 19  2  0  0  0  0
 18 20  1  0  0  0  0
M  END
