
 OpenBabel10141417553D

 12 12  0  0  0  0  0  0  0  0999 V2000
   -0.7255    1.2530   -0.2041 C   0  0  0  0  0  0  0  0  0  0  0  0
   -1.3831    0.0195   -0.1676 C   0  0  0  0  0  0  0  0  0  0  0  0
   -0.6537   -1.1824   -0.1374 C   0  0  0  0  0  0  0  0  0  0  0  0
    0.7445   -1.1275   -0.1455 C   0  0  0  0  0  0  0  0  0  0  0  0
    1.4116    0.0978   -0.1831 C   0  0  0  0  0  0  0  0  0  0  0  0
    0.6984    1.3267   -0.2084 C   0  0  0  0  0  0  0  0  0  0  0  0
   -1.3223   -2.5419   -0.1090 C   0  0  0  0  0  0  0  0  0  0  0  0
   -1.5716   -3.0897   -1.4405 N   0  0  0  0  0  0  0  0  0  0  0  0
    1.3986    2.5315   -0.2691 O   0  0  0  0  0  0  0  0  0  0  0  0
    2.3918    2.3043   -0.8127 O   0  0  0  0  0  0  0  0  0  0  0  0
    1.5912    2.8883    0.8135 O   0  0  0  0  0  0  0  0  0  0  0  0
    0.6945    3.4367   -0.9461 N   0  0  0  0  0  0  0  0  0  0  0  0
  1  2  1  0  0  0  0
  1  6  2  0  0  0  0
  2  3  2  0  0  0  0
  3  4  1  0  0  0  0
  3  7  1  0  0  0  0
  4  5  2  0  0  0  0
  5  6  1  0  0  0  0
  6  9  1  0  0  0  0
  7  8  1  0  0  0  0
  9 10  2  0  0  0  0
  9 12  1  0  0  0  0
 11  9  2  0  0  0  0
M  END
