
 OpenBabel10141417543D

 21 20  0  0  0  0  0  0  0  0999 V2000
   -0.6590   -1.2280   -0.0510 C   0  0  0  0  0  0  0  0  0  0  0  0
   -1.3900   -0.1120   -0.0540 C   0  0  0  0  0  0  0  0  0  0  0  0
   -0.7320    1.1400    0.1000 C   0  0  0  0  0  0  0  0  0  0  0  0
    0.6630    1.2080   -0.0480 C   0  0  0  0  0  0  0  0  0  0  0  0
    1.3710    0.1170   -0.0510 C   0  0  0  0  0  0  0  0  0  0  0  0
    0.7450   -1.1270    0.1040 C   0  0  0  0  0  0  0  0  0  0  0  0
    2.8040    0.1878   -0.2143 C   0  0  0  0  0  0  0  0  0  0  0  0
    3.6181   -0.9184   -1.2374 O   0  0  0  0  0  0  0  0  0  0  0  0
    3.8708    1.2321    0.6225 O   0  5  0  0  0  0  0  0  0  0  0  0
    1.2687    2.4053   -0.1871 O   0  0  0  0  0  0  0  0  0  0  0  0
   -0.6590   -1.2280   -0.0510 C   0  0  0  0  0  0  0  0  0  0  0  0
   -1.3900   -0.1120   -0.0540 C   0  0  0  0  0  0  0  0  0  0  0  0
   -0.7320    1.1400    0.1000 C   0  0  0  0  0  0  0  0  0  0  0  0
    0.6630    1.2080   -0.0480 C   0  0  0  0  0  0  0  0  0  0  0  0
    1.3710    0.1170   -0.0510 C   0  0  0  0  0  0  0  0  0  0  0  0
    0.7450   -1.1270    0.1040 C   0  0  0  0  0  0  0  0  0  0  0  0
    2.8040    0.1878   -0.2143 C   0  0  0  0  0  0  0  0  0  0  0  0
    3.8272   -0.7805    0.7598 O   0  0  0  0  0  0  0  0  0  0  0  0
    3.6534    1.0930   -1.3921 O   0  5  0  0  0  0  0  0  0  0  0  0
    1.2687    2.4053   -0.1871 O   0  0  0  0  0  0  0  0  0  0  0  0
    5.0419    0.1864   -0.4576 Mg  0  2  0  0  0 15  0  0  0  0  0  0
  1  2  2  0  0  0  0
  1  6  1  0  0  0  0
  2  3  1  0  0  0  0
  3  4  2  0  0  0  0
  4  5  1  0  0  0  0
  4 10  1  0  0  0  0
  5  6  2  0  0  0  0
  5  7  1  0  0  0  0
  7  8  2  0  0  0  0
  7  9  1  0  0  0  0
 11 12  2  0  0  0  0
 11 16  1  0  0  0  0
 12 13  1  0  0  0  0
 13 14  2  0  0  0  0
 14 15  1  0  0  0  0
 14 20  1  0  0  0  0
 15 16  2  0  0  0  0
 15 17  1  0  0  0  0
 17 18  2  0  0  0  0
 17 19  1  0  0  0  0
M  CHG  3   9  -1  19  -1  21   2
M  END
