772
 OpenBabel10141417503D

 19 18  0  0  1  0  0  0  0  0999 V2000
    4.6439   -0.2294    2.3363 S   0  0  0  0  0  0  0  0  0  0  0  0
    5.2866    2.0539    4.8486 S   0  0  0  0  0  0  0  0  0  0  0  0
    4.0470    1.4409    3.4701 P   0  0  0  0  0  0  0  0  0  0  0  0
    3.4873   -1.8364   -1.1207 O   0  0  0  0  0  0  0  0  0  0  0  0
    2.2148    0.2045   -1.3283 O   0  0  0  0  0  0  0  0  0  0  0  0
    3.5889    2.6233    2.4586 O   0  0  0  0  0  0  0  0  0  0  0  0
    2.5618    1.1962    4.0724 O   0  0  0  0  0  0  0  0  0  0  0  0
    5.2091   -2.2758    0.2684 O   0  0  0  0  0  0  0  0  0  0  0  0
    3.4322    1.9719   -2.1539 O   0  0  0  0  0  0  0  0  0  0  0  0
    3.7515   -0.3754    0.7388 C   0  0  3  0  0  0  0  0  0  0  0  0
    4.0935    0.8588   -0.1247 C   0  0  0  0  0  0  0  0  0  0  0  0
    4.1818   -1.6122   -0.0111 C   0  0  0  0  0  0  0  0  0  0  0  0
    3.2474    1.0572   -1.3425 C   0  0  0  0  0  0  0  0  0  0  0  0
    4.1284   -2.1704   -2.3405 C   0  0  0  0  0  0  0  0  0  0  0  0
    0.9865    0.5586   -1.9427 C   0  0  0  0  0  0  0  0  0  0  0  0
    4.9252   -0.9719   -2.8503 C   0  0  0  0  0  0  0  0  0  0  0  0
    1.0205    0.6676   -3.4504 C   0  0  0  0  0  0  0  0  0  0  0  0
    4.5040    3.5329    1.8886 C   0  0  0  0  0  0  0  0  0  0  0  0
    2.1517   -0.0159    4.6529 C   0  0  0  0  0  0  0  0  0  0  0  0
  1  3  1  0  0  0  0
  1 10  1  0  0  0  0
  2  3  2  0  0  0  0
  3  6  1  0  0  0  0
  3  7  1  0  0  0  0
  4 12  1  0  0  0  0
  4 14  1  0  0  0  0
  5 13  1  0  0  0  0
  5 15  1  0  0  0  0
  6 18  1  0  0  0  0
  7 19  1  0  0  0  0
  8 12  2  0  0  0  0
  9 13  2  0  0  0  0
 10 11  1  0  0  0  0
 10 12  1  0  0  0  0
 11 13  1  0  0  0  0
 14 16  1  0  0  0  0
 15 17  1  0  0  0  0
M  END
