ChEBI
 OpenBabel10141417523D

 12 11  0  0  1  0  0  0  0  0999 V2000
    8.2599   -2.4732    1.4058 C   0  0  0  0  0  0  0  0  0  0  0  0
    6.8589   -1.8601    1.6301 C   0  0  2  0  0  0  0  0  0  0  0  0
    5.8827   -2.8322    2.3436 C   0  0  2  0  0  0  0  0  0  0  0  0
    4.4441   -2.2913    2.5769 C   0  0  1  0  0  0  0  0  0  0  0  0
    4.3316   -0.9438    3.3199 C   0  0  1  0  0  0  0  0  0  0  0  0
    2.8651   -0.5083    3.5728 C   0  0  0  0  0  0  0  0  0  0  0  0
    8.1881   -3.5046    0.4182 O   0  0  0  0  0  0  0  0  0  0  0  0
    6.3086   -1.4248    0.3804 O   0  0  0  0  0  0  0  0  0  0  0  0
    5.7146   -4.0762    1.6197 O   0  0  0  0  0  0  0  0  0  0  0  0
    3.7333   -3.2935    3.3522 O   0  0  0  0  0  0  0  0  0  0  0  0
    5.0434   -1.0250    4.5618 O   0  0  0  0  0  0  0  0  0  0  0  0
    2.1487   -1.4112    4.4242 O   0  0  0  0  0  0  0  0  0  0  0  0
  2  1  1  6  0  0  0
  2  8  1  0  0  0  0
  3  2  1  0  0  0  0
  3  9  1  1  0  0  0
  4 10  1  6  0  0  0
  4  3  1  0  0  0  0
  5  6  1  1  0  0  0
  5 11  1  0  0  0  0
  5  4  1  0  0  0  0
  7  1  1  0  0  0  0
 12  6  1  0  0  0  0
M  END
