934
 OpenBabel10141417493D

 21 24  0  0  0  0  0  0  0  0999 V2000
    0.3216   -0.6568    1.8712 N   0  0  0  0  0  0  0  0  0  0  0  0
   -4.0948    1.3722    3.3927 C   0  0  3  0  0  0  0  0  0  0  0  0
   -6.7613    1.4253    3.3687 C   0  0  3  0  0  0  0  0  0  0  0  0
   -4.6708    1.5256    1.9332 C   0  0  0  0  0  0  0  0  0  0  0  0
   -6.2309    1.5268    1.9260 C   0  0  0  0  0  0  0  0  0  0  0  0
   -4.7571    0.0989    3.9694 C   0  0  0  0  0  0  0  0  0  0  0  0
   -4.7155    2.5734    4.1634 C   0  0  0  0  0  0  0  0  0  0  0  0
   -2.5397    1.3873    3.3784 C   0  0  0  0  0  0  0  0  0  0  0  0
   -6.1802    0.1290    3.9229 C   0  0  0  0  0  0  0  0  0  0  0  0
   -6.1403    2.5949    4.1236 C   0  0  0  0  0  0  0  0  0  0  0  0
   -1.8373    0.3329    2.4981 C   0  0  0  0  0  0  0  0  0  0  0  0
   -4.1258   -1.0159    4.5111 C   0  0  0  0  0  0  0  0  0  0  0  0
   -4.0400    3.5779    4.8479 C   0  0  0  0  0  0  0  0  0  0  0  0
   -6.9355   -0.9593    4.3404 C   0  0  0  0  0  0  0  0  0  0  0  0
   -6.8596    3.6224    4.7252 C   0  0  0  0  0  0  0  0  0  0  0  0
   -0.3133    0.3844    2.6813 C   0  0  0  0  0  0  0  0  0  0  0  0
   -4.8838   -2.1194    4.9034 C   0  0  0  0  0  0  0  0  0  0  0  0
   -4.7670    4.6058    5.4580 C   0  0  0  0  0  0  0  0  0  0  0  0
   -6.2815   -2.0951    4.8130 C   0  0  0  0  0  0  0  0  0  0  0  0
   -6.1673    4.6319    5.3890 C   0  0  0  0  0  0  0  0  0  0  0  0
    1.7720   -0.6271    2.0100 C   0  0  0  0  0  0  0  0  0  0  0  0
  1 16  1  0  0  0  0
  1 21  1  0  0  0  0
  2  4  1  0  0  0  0
  2  6  1  0  0  0  0
  2  7  1  0  0  0  0
  2  8  1  0  0  0  0
  3  5  1  0  0  0  0
  3  9  1  0  0  0  0
  3 10  1  0  0  0  0
  4  5  1  0  0  0  0
  6  9  1  0  0  0  0
  6 12  2  0  0  0  0
  7 10  1  0  0  0  0
  7 13  2  0  0  0  0
  8 11  1  0  0  0  0
  9 14  2  0  0  0  0
 10 15  2  0  0  0  0
 11 16  1  0  0  0  0
 12 17  1  0  0  0  0
 13 18  1  0  0  0  0
 14 19  1  0  0  0  0
 15 20  1  0  0  0  0
 17 19  2  0  0  0  0
 18 20  2  0  0  0  0
M  END
