179
 OpenBabel10141417483D

 22 23  0  0  1  0  0  0  0  0999 V2000
    8.8256   -0.7913   -3.6267 O   0  0  0  0  0  0  0  0  0  0  0  0
    3.0964   -7.5068   -5.5640 O   0  0  0  0  0  0  0  0  0  0  0  0
    7.3149    0.7979   -5.2266 O   0  0  0  0  0  0  0  0  0  0  0  0
    3.4975   -5.7888   -7.6081 O   0  0  0  0  0  0  0  0  0  0  0  0
    4.2852   -3.4654   -0.9598 C   0  0  2  0  0  0  0  0  0  0  0  0
    5.2640   -4.6582   -1.2159 C   0  0  1  0  0  0  0  0  0  0  0  0
    4.8693   -2.0262   -0.9766 C   0  0  0  0  0  0  0  0  0  0  0  0
    5.9214   -4.7246   -2.6160 C   0  0  0  0  0  0  0  0  0  0  0  0
    3.6146   -3.6342    0.4342 C   0  0  0  0  0  0  0  0  0  0  0  0
    6.3911   -4.7213   -0.1637 C   0  0  0  0  0  0  0  0  0  0  0  0
    5.4779   -1.4234   -2.2229 C   0  0  0  0  0  0  0  0  0  0  0  0
    5.0984   -4.9241   -3.8640 C   0  0  0  0  0  0  0  0  0  0  0  0
    6.8710   -1.5143   -2.4317 C   0  0  0  0  0  0  0  0  0  0  0  0
    4.3578   -6.0984   -4.0600 C   0  0  0  0  0  0  0  0  0  0  0  0
    4.7175   -0.6267   -3.0874 C   0  0  0  0  0  0  0  0  0  0  0  0
    5.2275   -4.0175   -4.9389 C   0  0  0  0  0  0  0  0  0  0  0  0
    7.4640   -0.7782   -3.4550 C   0  0  0  0  0  0  0  0  0  0  0  0
    3.8010   -6.3579   -5.3116 C   0  0  0  0  0  0  0  0  0  0  0  0
    5.3256    0.0989   -4.1217 C   0  0  0  0  0  0  0  0  0  0  0  0
    4.6712   -4.2879   -6.1888 C   0  0  0  0  0  0  0  0  0  0  0  0
    6.7063    0.0248   -4.2786 C   0  0  0  0  0  0  0  0  0  0  0  0
    3.9753   -5.4702   -6.3694 C   0  0  0  0  0  0  0  0  0  0  0  0
  1 17  1  0  0  0  0
  2 18  1  0  0  0  0
  3 21  1  0  0  0  0
  4 22  1  0  0  0  0
  5  6  1  0  0  0  0
  5  7  1  1  0  0  0
  5  9  1  0  0  0  0
  6  8  1  6  0  0  0
  6 10  1  0  0  0  0
  7 11  1  0  0  0  0
  8 12  1  0  0  0  0
 11 13  2  0  0  0  0
 11 15  1  0  0  0  0
 12 14  2  0  0  0  0
 12 16  1  0  0  0  0
 13 17  1  0  0  0  0
 14 18  1  0  0  0  0
 15 19  2  0  0  0  0
 16 20  2  0  0  0  0
 17 21  2  0  0  0  0
 18 22  2  0  0  0  0
 19 21  1  0  0  0  0
 20 22  1  0  0  0  0
M  END
