643
 OpenBabel10141419023D

 22 24  0  0  0  0  0  0  0  0999 V2000
    2.3636    0.7818   -0.4463 O   0  0  0  0  0  0  0  0  0  0  0  0
    6.3994   -3.9810    7.5568 O   0  0  0  0  0  0  0  0  0  0  0  0
    4.3344   -3.3048    6.8444 O   0  0  0  0  0  0  0  0  0  0  0  0
    4.6944   -2.3682    4.0645 N   0  0  0  0  0  0  0  0  0  0  0  0
    5.8332   -0.5703    4.6851 N   0  0  0  0  0  0  0  0  0  0  0  0
    6.2888   -2.6311    5.8140 N   0  0  0  0  0  0  0  0  0  0  0  0
    4.2512   -1.3652    3.2507 C   0  0  0  0  0  0  0  0  0  0  0  0
    4.9333   -0.2383    3.6949 C   0  0  0  0  0  0  0  0  0  0  0  0
    3.0699   -0.1370    1.5856 C   0  0  0  0  0  0  0  0  0  0  0  0
    3.3423   -1.3679    2.1921 C   0  0  0  0  0  0  0  0  0  0  0  0
    4.6561    0.9958    3.0888 C   0  0  0  0  0  0  0  0  0  0  0  0
    3.7308    1.0278    2.0245 C   0  0  0  0  0  0  0  0  0  0  0  0
    5.6280   -1.8472    4.9152 C   0  0  0  0  0  0  0  0  0  0  0  0
    2.1409   -0.0642    0.4185 C   0  0  0  0  0  0  0  0  0  0  0  0
    0.9564   -0.9692    0.2480 C   0  0  0  0  0  0  0  0  0  0  0  0
    0.2417   -1.4975    1.3316 C   0  0  0  0  0  0  0  0  0  0  0  0
    0.4889   -1.2209   -1.0527 C   0  0  0  0  0  0  0  0  0  0  0  0
   -0.9323   -2.2331    1.1160 C   0  0  0  0  0  0  0  0  0  0  0  0
   -0.6723   -1.9741   -1.2652 C   0  0  0  0  0  0  0  0  0  0  0  0
   -1.3925   -2.4651   -0.1793 C   0  0  0  0  0  0  0  0  0  0  0  0
    5.5385   -3.3256    6.7329 C   0  0  0  0  0  0  0  0  0  0  0  0
    5.8712   -4.3795    8.8209 C   0  0  0  0  0  0  0  0  0  0  0  0
  1 14  2  0  0  0  0
  2 21  1  0  0  0  0
  2 22  1  0  0  0  0
  3 21  2  0  0  0  0
  4  7  1  0  0  0  0
  4 13  1  0  0  0  0
  5  8  1  0  0  0  0
  5 13  2  0  0  0  0
  6 13  1  0  0  0  0
  6 21  1  0  0  0  0
  7  8  2  0  0  0  0
  7 10  1  0  0  0  0
  8 11  1  0  0  0  0
  9 10  2  0  0  0  0
  9 12  1  0  0  0  0
  9 14  1  0  0  0  0
 11 12  2  0  0  0  0
 14 15  1  0  0  0  0
 15 16  2  0  0  0  0
 15 17  1  0  0  0  0
 16 18  1  0  0  0  0
 17 19  2  0  0  0  0
 18 20  2  0  0  0  0
 19 20  1  0  0  0  0
M  END
