
 OpenBabel10141417513D

 28 31  0  0  1  0  0  0  0  0999 V2000
    1.8456    6.2204    6.5051 C   0  0  0  0  0  0  0  0  0  0  0  0
    0.1033    5.6295    3.4886 C   0  0  0  0  0  0  0  0  0  0  0  0
    2.6866    4.2225    7.5750 C   0  0  2  0  0  0  0  0  0  0  0  0
    0.8304    2.7689    6.4588 C   0  0  0  0  0  0  0  0  0  0  0  0
    3.0648    5.6963    7.2375 C   0  0  0  0  0  0  0  0  0  0  0  0
   -1.5543    3.3618    4.1073 C   0  0  2  0  0  0  0  0  0  0  0  0
   -0.5427    3.4045    6.5890 C   0  0  0  0  0  0  0  0  0  0  0  0
    0.2741    4.4103    2.5725 C   0  0  1  0  0  0  0  0  0  0  0  0
   -0.4302    3.1663    3.0971 C   0  0  0  0  0  0  0  0  0  0  0  0
   -2.2613    2.0138    4.4645 C   0  0  0  0  0  0  0  0  0  0  0  0
    0.0214    1.9576    2.7170 C   0  0  0  0  0  0  0  0  0  0  0  0
   -1.3955    0.7675    4.4922 C   0  0  0  0  0  0  0  0  0  0  0  0
    0.0611    5.2706    4.9863 C   0  0  2  0  0  0  0  0  0  0  0  0
   -0.9965    4.1785    5.3448 C   0  0  1  0  0  0  0  0  0  0  0  0
    1.9824    3.7591    6.2232 C   0  0  2  0  0  0  0  0  0  0  0  0
    2.9973    3.0642    5.2741 C   0  0  0  0  0  0  0  0  0  0  0  0
    1.5139    5.0887    5.5206 C   0  0  1  0  0  0  0  0  0  0  0  0
   -0.0807   -0.3746    2.8463 O   0  0  0  0  0  0  0  0  0  0  0  0
   -0.4866    0.6951    3.2951 C   0  0  0  0  0  0  0  0  0  0  0  0
   -2.7194    4.1775    3.4537 C   0  0  0  0  0  0  0  0  0  0  0  0
    1.6802    4.4451    8.5886 O   0  0  0  0  0  0  0  0  0  0  0  0
    4.0197    3.4891    7.9751 C   0  0  0  0  0  0  0  0  0  0  0  0
    4.0412    1.9918    8.1832 C   0  0  0  0  0  0  0  0  0  0  0  0
    5.0683    4.1216    8.1556 O   0  0  0  0  0  0  0  0  0  0  0  0
   -0.1443    4.7590    1.1415 C   0  0  0  0  0  0  0  0  0  0  0  0
    1.5627    3.7895    9.7596 C   0  0  0  0  0  0  0  0  0  0  0  0
    0.6601    4.5848   10.6563 C   0  0  0  0  0  0  0  0  0  0  0  0
    2.0799    2.7357   10.0638 O   0  0  0  0  0  0  0  0  0  0  0  0
  2  8  1  0  0  0  0
  3  5  1  0  0  0  0
  3 21  1  1  0  0  0
  3 22  1  0  0  0  0
  4  7  1  0  0  0  0
  5  1  1  0  0  0  0
  6  9  1  0  0  0  0
  6 10  1  0  0  0  0
  6 20  1  1  0  0  0
  8  9  1  0  0  0  0
  8 25  1  6  0  0  0
  9 11  2  0  0  0  0
 10 12  1  0  0  0  0
 11 19  1  0  0  0  0
 12 19  1  0  0  0  0
 13 14  1  0  0  0  0
 13  2  1  1  0  0  0
 14  6  1  0  0  0  0
 14  7  1  1  0  0  0
 15  3  1  0  0  0  0
 15  4  1  0  0  0  0
 15 16  1  6  0  0  0
 17 13  1  0  0  0  0
 17 15  1  0  0  0  0
 17  1  1  6  0  0  0
 19 18  2  0  0  0  0
 21 26  1  0  0  0  0
 22 23  1  0  0  0  0
 22 24  2  0  0  0  0
 26 27  1  0  0  0  0
 26 28  2  0  0  0  0
M  END
