253
 OpenBabel10141417503D

 25 28  0  0  1  0  0  0  0  0999 V2000
    3.1845    3.5332   -2.9149 O   0  0  0  0  0  0  0  0  0  0  0  0
    2.4532    7.0563   -6.9416 O   0  0  0  0  0  0  0  0  0  0  0  0
    1.2073    3.1371    2.7712 O   0  0  0  0  0  0  0  0  0  0  0  0
    2.4562    7.5507   -3.7003 C   0  0  2  0  0  0  0  0  0  0  0  0
    3.8817    7.0589   -4.0036 C   0  0  2  0  0  0  0  0  0  0  0  0
    1.8354    7.0659   -2.3809 C   0  0  1  0  0  0  0  0  0  0  0  0
    1.8736    5.5131   -2.3068 C   0  0  1  0  0  0  0  0  0  0  0  0
    1.2111    5.0101   -0.9638 C   0  0  2  0  0  0  0  0  0  0  0  0
    3.8506    5.5287   -3.9935 C   0  0  0  0  0  0  0  0  0  0  0  0
    3.2760    4.9406   -2.6819 C   0  0  2  0  0  0  0  0  0  0  0  0
    4.1494    7.7692   -5.3597 C   0  0  2  0  0  0  0  0  0  0  0  0
    2.4964    9.0416   -4.0100 C   0  0  0  0  0  0  0  0  0  0  0  0
    2.3006    7.8007   -1.1149 C   0  0  0  0  0  0  0  0  0  0  0  0
    3.4532    9.1467   -5.2114 C   0  0  0  0  0  0  0  0  0  0  0  0
    2.4730    7.0058    0.1997 C   0  0  1  0  0  0  0  0  0  0  0  0
    1.8690    5.6131    0.2721 C   0  0  0  0  0  0  0  0  0  0  0  0
    4.9833    7.5359   -3.0302 C   0  0  0  0  0  0  0  0  0  0  0  0
    1.2580    3.4601   -0.8481 C   0  0  0  0  0  0  0  0  0  0  0  0
   -0.2837    5.4502   -0.9487 C   0  0  0  0  0  0  0  0  0  0  0  0
    3.6322    7.0212   -6.5911 C   0  0  0  0  0  0  0  0  0  0  0  0
    0.6652    2.9151    0.4465 C   0  0  0  0  0  0  0  0  0  0  0  0
    1.8652    4.9593    1.4537 C   0  0  0  0  0  0  0  0  0  0  0  0
    3.9529    6.9943    0.6287 C   0  0  0  0  0  0  0  0  0  0  0  0
    1.2543    3.6193    1.6412 C   0  0  0  0  0  0  0  0  0  0  0  0
    4.6446    6.2164   -7.3663 C   0  0  0  0  0  0  0  0  0  0  0  0
  2 20  2  0  0  0  0
  3 24  2  0  0  0  0
  4  5  1  0  0  0  0
  4  6  1  0  0  0  0
  4 12  1  6  0  0  0
  5  9  1  0  0  0  0
  5 11  1  0  0  0  0
  5 17  1  6  0  0  0
  6 13  1  1  0  0  0
  7  6  1  6  0  0  0
  7  8  1  0  0  0  0
  7 10  1  0  0  0  0
  8 16  1  0  0  0  0
  8 18  1  0  0  0  0
  8 19  1  6  0  0  0
  9 10  1  0  0  0  0
 10  1  1  6  0  0  0
 11 14  1  0  0  0  0
 11 20  1  6  0  0  0
 12 14  1  0  0  0  0
 13 15  1  0  0  0  0
 15 16  1  0  0  0  0
 15 23  1  6  0  0  0
 16 22  2  0  0  0  0
 18 21  1  0  0  0  0
 20 25  1  0  0  0  0
 21 24  1  0  0  0  0
 22 24  1  0  0  0  0
M  END
