784
 OpenBabel10141417523D

 18 19  0  0  0  0  0  0  0  0999 V2000
    2.2005    1.2067   -0.4091 O   0  0  0  0  0  0  0  0  0  0  0  0
    3.1849   -0.4114   -1.5910 O   0  0  0  0  0  0  0  0  0  0  0  0
    1.3791    3.3362   -1.9233 N   0  0  0  0  0  0  0  0  0  0  0  0
    1.5747    5.7027   -1.2398 C   0  0  0  0  0  0  0  0  0  0  0  0
    0.7861    4.6136   -1.7027 C   0  0  0  0  0  0  0  0  0  0  0  0
    0.9624    6.9517   -0.9419 C   0  0  0  0  0  0  0  0  0  0  0  0
    1.0188    2.2811   -2.8123 C   0  0  0  0  0  0  0  0  0  0  0  0
   -0.5938    4.8174   -1.8662 C   0  0  0  0  0  0  0  0  0  0  0  0
   -0.4093    7.1204   -1.1641 C   0  0  0  0  0  0  0  0  0  0  0  0
    3.0686    5.5709   -1.0639 C   0  0  0  0  0  0  0  0  0  0  0  0
   -1.1816    6.0613   -1.6239 C   0  0  0  0  0  0  0  0  0  0  0  0
    1.5191    0.9628   -2.6609 C   0  0  0  0  0  0  0  0  0  0  0  0
    1.7510    8.1389   -0.4493 C   0  0  0  0  0  0  0  0  0  0  0  0
    0.2944    2.5465   -3.9892 C   0  0  0  0  0  0  0  0  0  0  0  0
    1.2244   -0.0392   -3.6105 C   0  0  0  0  0  0  0  0  0  0  0  0
   -0.0127    1.5419   -4.9181 C   0  0  0  0  0  0  0  0  0  0  0  0
    0.4445    0.2452   -4.7255 C   0  0  0  0  0  0  0  0  0  0  0  0
    2.3987    0.5269   -1.5514 C   0  0  0  0  0  0  0  0  0  0  0  0
  1 18  1  0  0  0  0
  2 18  2  0  0  0  0
  3  5  1  0  0  0  0
  3  7  1  0  0  0  0
  4  5  1  0  0  0  0
  4  6  2  0  0  0  0
  4 10  1  0  0  0  0
  5  8  2  0  0  0  0
  6  9  1  0  0  0  0
  6 13  1  0  0  0  0
  7 12  1  0  0  0  0
  7 14  2  0  0  0  0
  8 11  1  0  0  0  0
  9 11  2  0  0  0  0
 12 15  2  0  0  0  0
 12 18  1  0  0  0  0
 14 16  1  0  0  0  0
 15 17  1  0  0  0  0
 16 17  2  0  0  0  0
M  END
