358
 OpenBabel10141417473D

 26 28  0  0  1  0  0  0  0  0999 V2000
    2.6162    1.8469   -0.7924 F   0  0  0  0  0  0  0  0  0  0  0  0
    2.9528    0.2873    0.6869 F   0  0  0  0  0  0  0  0  0  0  0  0
    1.0152    0.4690   -0.2794 F   0  0  0  0  0  0  0  0  0  0  0  0
    4.5249    2.0093   -3.8833 F   0  0  0  0  0  0  0  0  0  0  0  0
    6.1639    1.3348   -5.1274 F   0  0  0  0  0  0  0  0  0  0  0  0
    4.2457    1.7941   -6.0242 F   0  0  0  0  0  0  0  0  0  0  0  0
    3.4285   -4.5485   -1.0389 O   0  0  0  0  0  0  0  0  0  0  0  0
    1.1247   -6.0924   -1.7422 N   0  0  0  0  0  0  0  0  0  0  0  0
    3.4013    0.0477   -2.7233 N   0  0  0  0  0  0  0  0  0  0  0  0
    1.2057   -4.6261   -1.9976 C   0  0  3  0  0  0  0  0  0  0  0  0
    0.1933   -4.1796   -3.0618 C   0  0  0  0  0  0  0  0  0  0  0  0
    2.6909   -4.1852   -2.2213 C   0  0  3  0  0  0  0  0  0  0  0  0
    0.1894   -5.0337   -4.3240 C   0  0  0  0  0  0  0  0  0  0  0  0
    0.1363   -6.5178   -3.9880 C   0  0  0  0  0  0  0  0  0  0  0  0
    1.2079   -6.8947   -2.9706 C   0  0  0  0  0  0  0  0  0  0  0  0
    2.9333   -2.6990   -2.4501 C   0  0  0  0  0  0  0  0  0  0  0  0
    3.5472   -2.1800   -3.6292 C   0  0  0  0  0  0  0  0  0  0  0  0
    2.5705   -1.7945   -1.4364 C   0  0  0  0  0  0  0  0  0  0  0  0
    3.7841   -0.7841   -3.7067 C   0  0  0  0  0  0  0  0  0  0  0  0
    2.8005   -0.4357   -1.6043 C   0  0  0  0  0  0  0  0  0  0  0  0
    3.9404   -2.9885   -4.7262 C   0  0  0  0  0  0  0  0  0  0  0  0
    4.4281   -0.2546   -4.8277 C   0  0  0  0  0  0  0  0  0  0  0  0
    4.5299   -2.4450   -5.8619 C   0  0  0  0  0  0  0  0  0  0  0  0
    4.7768   -1.0876   -5.9108 C   0  0  0  0  0  0  0  0  0  0  0  0
    2.3597    0.5376   -0.5168 C   0  0  0  0  0  0  0  0  0  0  0  0
    4.8156    1.1983   -4.9336 C   0  0  0  0  0  0  0  0  0  0  0  0
  1 25  1  0  0  0  0
  2 25  1  0  0  0  0
  3 25  1  0  0  0  0
  4 26  1  0  0  0  0
  5 26  1  0  0  0  0
  6 26  1  0  0  0  0
  7 12  1  0  0  0  0
  8 10  1  0  0  0  0
  8 15  1  0  0  0  0
  9 19  1  0  0  0  0
  9 20  2  0  0  0  0
 10 11  1  0  0  0  0
 10 12  1  0  0  0  0
 11 13  1  0  0  0  0
 12 16  1  0  0  0  0
 13 14  1  0  0  0  0
 14 15  1  0  0  0  0
 16 17  1  0  0  0  0
 16 18  2  0  0  0  0
 17 19  2  0  0  0  0
 17 21  1  0  0  0  0
 18 20  1  0  0  0  0
 19 22  1  0  0  0  0
 20 25  1  0  0  0  0
 21 23  2  0  0  0  0
 22 24  2  0  0  0  0
 22 26  1  0  0  0  0
 23 24  1  0  0  0  0
M  END
