
 OpenBabel10141417493D

 27 30  0  0  1  0  0  0  0  0999 V2000
    0.2715    3.1794   -0.3660 C   0  0  0  0  0  0  0  0  0  0  0  0
    0.9273    5.6204   -2.1327 C   0  0  0  0  0  0  0  0  0  0  0  0
    2.0355    1.6226    0.5108 C   0  0  2  0  0  0  0  0  0  0  0  0
    3.8932    2.4553   -1.2530 C   0  0  0  0  0  0  0  0  0  0  0  0
    0.5212    2.0274    0.6202 C   0  0  0  0  0  0  0  0  0  0  0  0
    3.8418    5.9455   -1.7597 C   0  0  2  0  0  0  0  0  0  0  0  0
    4.0883    3.3829   -2.4759 C   0  0  0  0  0  0  0  0  0  0  0  0
    1.4190    6.8033   -1.7490 C   0  0  0  0  0  0  0  0  0  0  0  0
    2.7754    6.9348   -1.2638 C   0  0  0  0  0  0  0  0  0  0  0  0
    4.7336    5.6005   -0.5417 C   0  0  0  0  0  0  0  0  0  0  0  0
    3.0241    7.8590   -0.3189 C   0  0  0  0  0  0  0  0  0  0  0  0
    5.3368    6.8234    0.1520 C   0  0  0  0  0  0  0  0  0  0  0  0
    1.7490    4.3630   -2.1635 C   0  0  2  0  0  0  0  0  0  0  0  0
    3.2287    4.6744   -2.5017 C   0  0  1  0  0  0  0  0  0  0  0  0
    2.4075    2.2040   -0.9140 C   0  0  2  0  0  0  0  0  0  0  0  0
    1.8542    1.2466   -2.0223 C   0  0  0  0  0  0  0  0  0  0  0  0
    1.6592    3.5578   -0.8657 C   0  0  1  0  0  0  0  0  0  0  0  0
    4.5769    8.8971    1.0882 O   0  0  0  0  0  0  0  0  0  0  0  0
    4.3341    7.9315    0.3660 C   0  0  0  0  0  0  0  0  0  0  0  0
    4.7152    6.6871   -2.8141 C   0  0  0  0  0  0  0  0  0  0  0  0
    2.0650    0.1803    0.5051 O   0  0  0  0  0  0  0  0  0  0  0  0
    2.7440    2.2537    1.7568 C   0  0  0  0  0  0  0  0  0  0  0  0
    2.3774    1.7088    3.1191 C   0  0  0  0  0  0  0  0  0  0  0  0
    3.5412    3.1898    1.6878 O   0  0  0  0  0  0  0  0  0  0  0  0
    3.2308   -0.4642    0.7549 C   0  0  0  0  0  0  0  0  0  0  0  0
    3.1059   -1.9185    0.4197 C   0  0  0  0  0  0  0  0  0  0  0  0
    4.2492    0.0480    1.2042 O   0  0  0  0  0  0  0  0  0  0  0  0
  2  8  2  0  0  0  0
  3  5  1  0  0  0  0
  3 22  1  1  0  0  0
  3 21  1  0  0  0  0
  4  7  1  0  0  0  0
  5  1  1  0  0  0  0
  6  9  1  0  0  0  0
  6 10  1  0  0  0  0
  6 20  1  1  0  0  0
  8  9  1  0  0  0  0
  9 11  2  0  0  0  0
 10 12  1  0  0  0  0
 11 19  1  0  0  0  0
 12 19  1  0  0  0  0
 13 14  1  0  0  0  0
 13  2  1  6  0  0  0
 14  6  1  0  0  0  0
 14  7  1  1  0  0  0
 15  3  1  0  0  0  0
 15  4  1  0  0  0  0
 15 16  1  1  0  0  0
 17 13  1  0  0  0  0
 17 15  1  0  0  0  0
 17  1  1  1  0  0  0
 19 18  2  0  0  0  0
 21 25  1  0  0  0  0
 22 23  1  0  0  0  0
 22 24  2  0  0  0  0
 25 26  1  0  0  0  0
 25 27  2  0  0  0  0
M  END
