1043
 OpenBabel10141417513D

 13 15  0  0  1  0  0  0  0  0999 V2000
    0.9492    0.0577   -0.0820 N   0  0  0  0  0  0  0  0  0  0  0  0
    4.4816   -1.1978   -0.8710 C   0  0  3  0  0  0  0  0  0  0  0  0
    4.4809   -0.0103    1.3820 C   0  0  3  0  0  0  0  0  0  0  0  0
    2.4117    0.0462   -0.0874 C   0  0  3  0  0  0  0  0  0  0  0  0
    4.4747    1.3318   -0.7648 C   0  0  3  0  0  0  0  0  0  0  0  0
    4.9871   -1.2381    0.5898 C   0  0  0  0  0  0  0  0  0  0  0  0
    2.9348   -1.1838   -0.8609 C   0  0  0  0  0  0  0  0  0  0  0  0
    2.9340   -0.0106    1.3637 C   0  0  0  0  0  0  0  0  0  0  0  0
    4.9860    0.1036   -1.5347 C   0  0  0  0  0  0  0  0  0  0  0  0
    4.9855    1.2728    0.6838 C   0  0  0  0  0  0  0  0  0  0  0  0
    2.9372    1.3288   -0.7636 C   0  0  0  0  0  0  0  0  0  0  0  0
    4.9946   -2.4185   -1.6409 C   0  0  0  0  0  0  0  0  0  0  0  0
    4.9931   -0.0653    2.8244 C   0  0  0  0  0  0  0  0  0  0  0  0
  1  4  1  0  0  0  0
  2  6  1  0  0  0  0
  2  7  1  0  0  0  0
  2  9  1  0  0  0  0
  2 12  1  0  0  0  0
  3  6  1  0  0  0  0
  3  8  1  0  0  0  0
  3 10  1  0  0  0  0
  3 13  1  0  0  0  0
  4  7  1  0  0  0  0
  4  8  1  0  0  0  0
  4 11  1  0  0  0  0
  5  9  1  0  0  0  0
  5 10  1  0  0  0  0
  5 11  1  0  0  0  0
M  END
