170
 OpenBabel10141417493D

 13 14  0  0  0  0  0  0  0  0999 V2000
    0.8158   -0.0385   -0.0302 O   0  0  0  0  0  0  0  0  0  0  0  0
    6.1552   -0.1139   -0.0313 O   0  0  0  0  0  0  0  0  0  0  0  0
    2.8031    1.2127   -0.0299 C   0  0  0  0  0  0  0  0  0  0  0  0
    4.1964    1.2054   -0.0298 C   0  0  0  0  0  0  0  0  0  0  0  0
    2.8037   -1.3305   -0.0296 C   0  0  0  0  0  0  0  0  0  0  0  0
    2.0408   -0.0530   -0.0299 C   0  0  0  0  0  0  0  0  0  0  0  0
    4.9321   -0.0707   -0.0303 C   0  0  0  0  0  0  0  0  0  0  0  0
    4.1434   -1.3174   -0.0298 C   0  0  0  0  0  0  0  0  0  0  0  0
    2.1134    2.4328   -0.0298 C   0  0  0  0  0  0  0  0  0  0  0  0
    4.9051    2.4140   -0.0294 C   0  0  0  0  0  0  0  0  0  0  0  0
    2.0313   -2.6143   -0.0294 C   0  0  0  0  0  0  0  0  0  0  0  0
    2.8202    3.6367   -0.0295 C   0  0  0  0  0  0  0  0  0  0  0  0
    4.2147    3.6273   -0.0292 C   0  0  0  0  0  0  0  0  0  0  0  0
  1  6  2  0  0  0  0
  2  7  2  0  0  0  0
  3  4  1  0  0  0  0
  3  6  1  0  0  0  0
  3  9  2  0  0  0  0
  4  7  1  0  0  0  0
  4 10  2  0  0  0  0
  5  6  1  0  0  0  0
  5  8  2  0  0  0  0
  5 11  1  0  0  0  0
  7  8  1  0  0  0  0
  9 12  1  0  0  0  0
 10 13  1  0  0  0  0
 12 13  2  0  0  0  0
M  END
