825
 OpenBabel10141417503D

 11 11  0  0  1  0  0  0  0  0999 V2000
    3.0793    0.1437   -1.3903 O   0  0  0  0  0  0  0  0  0  0  0  0
    2.9134   -1.2483    0.6087 C   0  0  1  0  0  0  0  0  0  0  0  0
    2.4839    0.0639   -0.0962 C   0  0  1  0  0  0  0  0  0  0  0  0
    2.5307   -1.2008    2.1057 C   0  0  0  0  0  0  0  0  0  0  0  0
    2.4588    1.3197    2.1160 C   0  0  1  0  0  0  0  0  0  0  0  0
    2.9146    1.3246    0.6599 C   0  0  0  0  0  0  0  0  0  0  0  0
    2.9899    0.0698    2.8139 C   0  0  0  0  0  0  0  0  0  0  0  0
    2.3143   -2.5343   -0.0630 C   0  0  0  0  0  0  0  0  0  0  0  0
    2.9283    2.5825    2.8357 C   0  0  0  0  0  0  0  0  0  0  0  0
    2.7712   -3.8203    0.6440 C   0  0  0  0  0  0  0  0  0  0  0  0
    2.6499   -2.6706   -1.5527 C   0  0  0  0  0  0  0  0  0  0  0  0
  2  3  1  0  0  0  0
  2  4  1  0  0  0  0
  2  8  1  6  0  0  0
  3  6  1  0  0  0  0
  3  1  1  6  0  0  0
  4  7  1  0  0  0  0
  5  6  1  0  0  0  0
  5  7  1  0  0  0  0
  5  9  1  1  0  0  0
  8 10  1  0  0  0  0
  8 11  1  0  0  0  0
M  END
