961
 OpenBabel10141417483D

 18 19  0  0  1  0  0  0  0  0999 V2000
    3.3901    0.8168   -1.5800 O   0  0  0  0  0  0  0  0  0  0  0  0
    5.6958   -1.3879    0.0148 N   0  0  0  0  0  0  0  0  0  0  0  0
    3.3275   -0.1614    0.5418 N   0  0  0  0  0  0  0  0  0  0  0  0
    4.8470   -1.0554   -1.1657 C   0  0  3  0  0  0  0  0  0  0  0  0
    5.6404   -0.5447   -2.3864 C   0  0  0  0  0  0  0  0  0  0  0  0
    6.5669    0.6117   -2.0155 C   0  0  0  0  0  0  0  0  0  0  0  0
    7.4447    0.2382   -0.8289 C   0  0  0  0  0  0  0  0  0  0  0  0
    6.6133   -0.2813    0.3443 C   0  0  0  0  0  0  0  0  0  0  0  0
    3.7618   -0.0144   -0.7684 C   0  0  0  0  0  0  0  0  0  0  0  0
    6.4200   -2.6440   -0.1968 C   0  0  0  0  0  0  0  0  0  0  0  0
    2.3591    0.5836    1.2672 C   0  0  0  0  0  0  0  0  0  0  0  0
    1.2494    1.2367    0.6727 C   0  0  0  0  0  0  0  0  0  0  0  0
    2.4837    0.6288    2.6865 C   0  0  0  0  0  0  0  0  0  0  0  0
    0.3242    1.9272    1.4844 C   0  0  0  0  0  0  0  0  0  0  0  0
    1.5276    1.3272    3.4565 C   0  0  0  0  0  0  0  0  0  0  0  0
    0.9293    1.2654   -0.7972 C   0  0  0  0  0  0  0  0  0  0  0  0
    3.6145    0.0363    3.4934 C   0  0  0  0  0  0  0  0  0  0  0  0
    0.4548    1.9692    2.8621 C   0  0  0  0  0  0  0  0  0  0  0  0
  1  9  2  0  0  0  0
  2  4  1  0  0  0  0
  2  8  1  0  0  0  0
  2 10  1  0  0  0  0
  3  9  1  0  0  0  0
  3 11  1  0  0  0  0
  4  5  1  0  0  0  0
  4  9  1  0  0  0  0
  5  6  1  0  0  0  0
  6  7  1  0  0  0  0
  7  8  1  0  0  0  0
 11 12  2  0  0  0  0
 11 13  1  0  0  0  0
 12 14  1  0  0  0  0
 12 16  1  0  0  0  0
 13 15  2  0  0  0  0
 13 17  1  0  0  0  0
 14 18  2  0  0  0  0
 15 18  1  0  0  0  0
M  END
