
 OpenBabel10141417543D

 21 22  0  0  0  0  0  0  0  0999 V2000
    3.9840    0.7917    3.3462 N   0  0  0  0  0  0  0  0  0  0  0  0
    5.9387   -2.7186    5.1932 C   0  0  0  0  0  0  0  0  0  0  0  0
    5.0718   -3.2216    6.1678 C   0  0  0  0  0  0  0  0  0  0  0  0
    3.7140   -2.8880    6.1287 C   0  0  0  0  0  0  0  0  0  0  0  0
    3.2091   -2.1037    5.0788 C   0  0  0  0  0  0  0  0  0  0  0  0
    4.0606   -1.6770    4.0317 C   0  0  0  0  0  0  0  0  0  0  0  0
    5.4292   -2.0210    4.0902 C   0  0  0  0  0  0  0  0  0  0  0  0
    3.5894   -0.6205    3.0370 C   0  0  0  0  0  0  0  0  0  0  0  0
    3.6951    1.7812    2.1386 C   0  0  0  0  0  0  0  0  0  0  0  0
    2.8398    3.1116    2.3677 C   0  0  0  0  0  0  0  0  0  0  0  0
    4.0858    1.1746    4.6589 C   0  0  0  0  0  0  0  0  0  0  0  0
    4.9777    1.1397    6.9943 C   0  0  0  0  0  0  0  0  0  0  0  0
    4.8545    2.4138    7.2277 C   0  0  0  0  0  0  0  0  0  0  0  0
    3.9733    2.9033    6.2964 C   0  0  0  0  0  0  0  0  0  0  0  0
    3.5268    4.3903    2.8045 N   0  0  0  0  0  0  0  0  0  0  0  0
    2.5982    5.3970    3.3932 C   0  0  0  0  0  0  0  0  0  0  0  0
    4.2667    4.0462    3.9685 C   0  0  0  0  0  0  0  0  0  0  0  0
    5.4808   -4.0352    7.1927 O   0  0  0  0  0  0  0  0  0  0  0  0
    6.5438   -4.9139    6.8141 C   0  0  0  0  0  0  0  0  0  0  0  0
    3.4950    2.1627    5.2070 N   0  0  0  0  0  0  0  0  0  0  0  0
    4.7043    0.5390    5.7423 C   0  0  0  0  0  0  0  0  0  0  0  0
  1  9  1  0  0  0  0
  1 11  1  0  0  0  0
  2  3  2  0  0  0  0
  2  7  1  0  0  0  0
  3  4  1  0  0  0  0
  3 18  1  0  0  0  0
  4  5  2  0  0  0  0
  5  6  1  0  0  0  0
  6  7  2  0  0  0  0
  6  8  1  0  0  0  0
  8  1  1  0  0  0  0
  9 10  1  0  0  0  0
 10 15  1  0  0  0  0
 11 21  1  0  0  0  0
 11 20  2  0  0  0  0
 12 13  1  0  0  0  0
 13 14  2  0  0  0  0
 14 20  1  0  0  0  0
 15 16  1  0  0  0  0
 15 17  1  0  0  0  0
 18 19  1  0  0  0  0
 21 12  2  0  0  0  0
M  END
