1071
 OpenBabel10141417513D

 23 27  0  0  1  0  0  0  0  0999 V2000
   -0.9659   -0.7221    3.5567 S   0  0  0  0  0  0  0  0  0  0  0  0
   -3.3240    4.9523    1.2565 N   0  0  3  0  0  0  0  0  0  0  0  0
   -2.3629    0.0748    0.8707 N   0  0  0  0  0  0  0  0  0  0  0  0
   -1.8300    2.9874    2.0675 C   0  0  3  0  0  0  0  0  0  0  0  0
   -3.1150    2.4495    1.3895 C   0  0  3  0  0  0  0  0  0  0  0  0
   -3.8589    3.6591    0.7685 C   0  0  0  0  0  0  0  0  0  0  0  0
   -1.0675    3.9000    1.0933 C   0  0  0  0  0  0  0  0  0  0  0  0
   -2.2836    3.8681    3.2483 C   0  0  0  0  0  0  0  0  0  0  0  0
   -1.9454    5.1106    0.7397 C   0  0  0  0  0  0  0  0  0  0  0  0
   -3.2718    4.9269    2.7356 C   0  0  0  0  0  0  0  0  0  0  0  0
   -2.9074    1.3478    0.3219 C   0  0  0  0  0  0  0  0  0  0  0  0
   -0.9483   -0.0372    0.8369 C   0  0  0  0  0  0  0  0  0  0  0  0
   -3.1812   -0.5583    1.8419 C   0  0  0  0  0  0  0  0  0  0  0  0
   -0.2044   -0.4035    1.9748 C   0  0  0  0  0  0  0  0  0  0  0  0
   -2.6676   -0.9756    3.0855 C   0  0  0  0  0  0  0  0  0  0  0  0
   -0.2496    0.1629   -0.3698 C   0  0  0  0  0  0  0  0  0  0  0  0
   -4.5331   -0.8319    1.5633 C   0  0  0  0  0  0  0  0  0  0  0  0
    1.1960   -0.4794    1.9096 C   0  0  0  0  0  0  0  0  0  0  0  0
   -3.5101   -1.5860    4.0290 C   0  0  0  0  0  0  0  0  0  0  0  0
    1.1414    0.0648   -0.4340 C   0  0  0  0  0  0  0  0  0  0  0  0
   -5.3605   -1.4590    2.4982 C   0  0  0  0  0  0  0  0  0  0  0  0
    1.8666   -0.2432    0.7105 C   0  0  0  0  0  0  0  0  0  0  0  0
   -4.8509   -1.8254    3.7380 C   0  0  0  0  0  0  0  0  0  0  0  0
  1 14  1  0  0  0  0
  1 15  1  0  0  0  0
  2  6  1  0  0  0  0
  2  9  1  0  0  0  0
  2 10  1  0  0  0  0
  3 11  1  0  0  0  0
  3 12  1  0  0  0  0
  3 13  1  0  0  0  0
  4  5  1  0  0  0  0
  4  7  1  0  0  0  0
  4  8  1  0  0  0  0
  5  6  1  0  0  0  0
  5 11  1  0  0  0  0
  7  9  1  0  0  0  0
  8 10  1  0  0  0  0
 12 14  1  0  0  0  0
 12 16  2  0  0  0  0
 13 15  1  0  0  0  0
 13 17  2  0  0  0  0
 14 18  2  0  0  0  0
 15 19  2  0  0  0  0
 16 20  1  0  0  0  0
 17 21  1  0  0  0  0
 18 22  1  0  0  0  0
 19 23  1  0  0  0  0
 20 22  2  0  0  0  0
 21 23  2  0  0  0  0
M  END
