1033
 OpenBabel10141417493D

 10 11  0  0  0  0  0  0  0  0999 V2000
    0.7691   -0.0057    0.0639 S   0  0  0  0  0  0  0  0  0  0  0  0
    2.8246   -2.4864    0.0610 N   0  0  0  0  0  0  0  0  0  0  0  0
    5.2582   -0.0681    0.0500 N   0  0  0  0  0  0  0  0  0  0  0  0
    5.0558   -2.4560    0.0529 N   0  0  0  0  0  0  0  0  0  0  0  0
    3.2131    1.2020    0.0562 N   0  0  0  0  0  0  0  0  0  0  0  0
    3.1884   -1.1664    0.0584 C   0  0  0  0  0  0  0  0  0  0  0  0
    4.5548   -1.1992    0.0536 C   0  0  0  0  0  0  0  0  0  0  0  0
    2.4392    0.0547    0.0595 C   0  0  0  0  0  0  0  0  0  0  0  0
    3.9830   -3.2230    0.0573 C   0  0  0  0  0  0  0  0  0  0  0  0
    4.5057    1.0775    0.0518 C   0  0  0  0  0  0  0  0  0  0  0  0
  1  8  2  0  0  0  0
  2  6  1  0  0  0  0
  2  9  1  0  0  0  0
  3  7  1  0  0  0  0
  3 10  1  0  0  0  0
  4  7  1  0  0  0  0
  4  9  2  0  0  0  0
  5  8  1  0  0  0  0
  5 10  2  0  0  0  0
  6  7  2  0  0  0  0
  6  8  1  0  0  0  0
M  END
