244
 OpenBabel10141417483D

 11 11  0  0  0  0  0  0  0  0999 V2000
    0.9113   -0.2609   -0.0016 O   0  0  0  0  0  0  0  0  0  0  0  0
    2.9780    3.4024   -0.3875 O   0  0  0  0  0  0  0  0  0  0  0  0
    0.9950    2.3885   -0.1504 O   0  0  0  0  0  0  0  0  0  0  0  0
    6.4699   -0.1775   -0.2925 N   0  0  0  0  0  0  0  0  0  0  0  0
    2.9653    1.0403   -0.2248 C   0  0  0  0  0  0  0  0  0  0  0  0
    5.0707   -0.1795   -0.3292 C   0  0  0  0  0  0  0  0  0  0  0  0
    4.3657    1.0281   -0.3164 C   0  0  0  0  0  0  0  0  0  0  0  0
    2.2743   -0.1713   -0.1001 C   0  0  0  0  0  0  0  0  0  0  0  0
    4.3666   -1.3724   -0.1434 C   0  0  0  0  0  0  0  0  0  0  0  0
    2.9730   -1.3734   -0.0519 C   0  0  0  0  0  0  0  0  0  0  0  0
    2.2089    2.3106   -0.2448 C   0  0  0  0  0  0  0  0  0  0  0  0
  1  8  1  0  0  0  0
  2 11  1  0  0  0  0
  3 11  2  0  0  0  0
  4  6  1  0  0  0  0
  5  7  1  0  0  0  0
  5  8  2  0  0  0  0
  5 11  1  0  0  0  0
  6  7  2  0  0  0  0
  6  9  1  0  0  0  0
  8 10  1  0  0  0  0
  9 10  2  0  0  0  0
M  END
