933
 OpenBabel10141417493D

 26 29  0  0  1  0  0  0  0  0999 V2000
    0.8201   -4.4567    1.0171 S   0  0  0  0  0  0  0  0  0  0  0  0
    5.4414   -0.5131   -0.9590 S   0  0  3  0  0  0  0  0  0  0  0  0
    6.5861   -0.7730   -0.0220 O   0  0  0  0  0  0  0  0  0  0  0  0
    0.7468    2.4588    0.7671 N   0  0  0  0  0  0  0  0  0  0  0  0
    0.3698   -1.7313   -0.4555 N   0  0  0  0  0  0  0  0  0  0  0  0
   -0.0887    1.5507    1.5854 C   0  0  3  0  0  0  0  0  0  0  0  0
    0.0022    1.8774    3.0915 C   0  0  0  0  0  0  0  0  0  0  0  0
    0.2613    0.0681    1.2981 C   0  0  0  0  0  0  0  0  0  0  0  0
    1.4418    1.9270    3.5947 C   0  0  0  0  0  0  0  0  0  0  0  0
    2.1414    2.5144    1.2386 C   0  0  0  0  0  0  0  0  0  0  0  0
    2.2903    2.8465    2.7238 C   0  0  0  0  0  0  0  0  0  0  0  0
    0.0291   -0.3084   -0.1785 C   0  0  0  0  0  0  0  0  0  0  0  0
    0.1667    3.8011    0.6712 C   0  0  0  0  0  0  0  0  0  0  0  0
    1.7226   -2.1064   -0.2209 C   0  0  0  0  0  0  0  0  0  0  0  0
   -0.7194   -2.6440   -0.4638 C   0  0  0  0  0  0  0  0  0  0  0  0
    2.0515   -3.3272    0.3979 C   0  0  0  0  0  0  0  0  0  0  0  0
   -0.6321   -3.9104    0.1421 C   0  0  0  0  0  0  0  0  0  0  0  0
    2.7861   -1.2768   -0.6406 C   0  0  0  0  0  0  0  0  0  0  0  0
   -1.9069   -2.3438   -1.1639 C   0  0  0  0  0  0  0  0  0  0  0  0
    3.3947   -3.6810    0.6114 C   0  0  0  0  0  0  0  0  0  0  0  0
    4.1265   -1.6356   -0.4316 C   0  0  0  0  0  0  0  0  0  0  0  0
   -1.7193   -4.8031    0.1011 C   0  0  0  0  0  0  0  0  0  0  0  0
    4.4249   -2.8377    0.2010 C   0  0  0  0  0  0  0  0  0  0  0  0
   -2.9832   -3.2391   -1.2090 C   0  0  0  0  0  0  0  0  0  0  0  0
   -2.8928   -4.4642   -0.5679 C   0  0  0  0  0  0  0  0  0  0  0  0
    5.8422   -1.3377   -2.5219 C   0  0  0  0  0  0  0  0  0  0  0  0
  1 16  1  0  0  0  0
  1 17  1  0  0  0  0
  2  3  2  0  0  0  0
  2 21  1  0  0  0  0
  2 26  1  0  0  0  0
  4  6  1  0  0  0  0
  4 10  1  0  0  0  0
  4 13  1  0  0  0  0
  5 12  1  0  0  0  0
  5 14  1  0  0  0  0
  5 15  1  0  0  0  0
  6  7  1  0  0  0  0
  6  8  1  0  0  0  0
  7  9  1  0  0  0  0
  8 12  1  0  0  0  0
  9 11  1  0  0  0  0
 10 11  1  0  0  0  0
 14 16  2  0  0  0  0
 14 18  1  0  0  0  0
 15 17  1  0  0  0  0
 15 19  2  0  0  0  0
 16 20  1  0  0  0  0
 17 22  2  0  0  0  0
 18 21  2  0  0  0  0
 19 24  1  0  0  0  0
 20 23  2  0  0  0  0
 21 23  1  0  0  0  0
 22 25  1  0  0  0  0
 24 25  2  0  0  0  0
M  END
