660
 OpenBabel10141417493D

 16 17  0  0  1  0  0  0  0  0999 V2000
   -0.4615   -2.8819    1.7513 O   0  0  0  0  0  0  0  0  0  0  0  0
    1.3381   -3.4741   -1.4217 O   0  0  0  0  0  0  0  0  0  0  0  0
   -2.6771   -2.8472    2.3421 O   0  0  0  0  0  0  0  0  0  0  0  0
   -1.9461   -1.9671    0.3530 N   0  0  0  0  0  0  0  0  0  0  0  0
    0.2654   -2.5231    0.5564 C   0  0  3  0  0  0  0  0  0  0  0  0
   -0.6779   -1.5845   -0.1693 C   0  0  0  0  0  0  0  0  0  0  0  0
    0.6107   -3.7921   -0.2302 C   0  0  0  0  0  0  0  0  0  0  0  0
   -1.7861   -2.5982    1.5554 C   0  0  0  0  0  0  0  0  0  0  0  0
    1.6493   -4.5329   -2.2419 C   0  0  0  0  0  0  0  0  0  0  0  0
    1.3831   -5.8769   -1.9667 C   0  0  0  0  0  0  0  0  0  0  0  0
    2.2740   -4.1987   -3.4492 C   0  0  0  0  0  0  0  0  0  0  0  0
    1.6903   -6.8773   -2.9007 C   0  0  0  0  0  0  0  0  0  0  0  0
    2.6317   -5.1897   -4.3772 C   0  0  0  0  0  0  0  0  0  0  0  0
    2.3217   -6.5265   -4.0992 C   0  0  0  0  0  0  0  0  0  0  0  0
    1.3134   -8.3066   -2.6398 C   0  0  0  0  0  0  0  0  0  0  0  0
    3.3150   -4.8415   -5.6678 C   0  0  0  0  0  0  0  0  0  0  0  0
  1  5  1  0  0  0  0
  1  8  1  0  0  0  0
  2  7  1  0  0  0  0
  2  9  1  0  0  0  0
  3  8  2  0  0  0  0
  4  6  1  0  0  0  0
  4  8  1  0  0  0  0
  5  6  1  0  0  0  0
  5  7  1  0  0  0  0
  9 10  2  0  0  0  0
  9 11  1  0  0  0  0
 10 12  1  0  0  0  0
 11 13  2  0  0  0  0
 12 14  2  0  0  0  0
 12 15  1  0  0  0  0
 13 14  1  0  0  0  0
 13 16  1  0  0  0  0
M  END
