
 OpenBabel10141417533D

  9  8  0  0  0  0  0  0  0  0999 V2000
    3.9334    1.5053    0.0498 N   0  0  0  0  0  0  0  0  0  0  0  0
    1.6715    1.3687   -0.4277 N   0  0  0  0  0  0  0  0  0  0  0  0
    2.8653    0.8837   -0.4991 C   0  0  0  0  0  0  0  0  0  0  0  0
    3.1146   -0.2692   -1.1615 N   0  0  0  0  0  0  0  0  0  0  0  0
    5.1745   -1.1415   -0.4632 N   0  0  0  0  0  0  0  0  0  0  0  0
    4.1683   -1.1280   -1.2745 C   0  0  0  0  0  0  0  0  0  0  0  0
    4.8328   -3.2429   -2.2772 C   0  0  0  0  0  0  0  0  0  0  0  0
    4.0535   -2.0034   -2.3333 N   0  0  0  0  0  0  0  0  0  0  0  0
    3.9677   -1.4517   -3.6873 C   0  0  0  0  0  0  0  0  0  0  0  0
  1  3  1  0  0  0  0
  3  2  2  0  0  0  0
  3  4  1  0  0  0  0
  4  6  1  0  0  0  0
  6  5  2  0  0  0  0
  6  8  1  0  0  0  0
  8  7  1  0  0  0  0
  8  9  1  0  0  0  0
M  END
