423
 OpenBabel10141417503D

 17 17  0  0  1  0  0  0  0  0999 V2000
    1.4385    0.0454    0.5589 O   0  0  0  0  0  0  0  0  0  0  0  0
    0.6065    0.5602    3.2987 O   0  0  0  0  0  0  0  0  0  0  0  0
   -1.3270    2.5265    3.5758 O   0  0  0  0  0  0  0  0  0  0  0  0
    1.8401   -2.5866   -0.4939 O   0  0  0  0  0  0  0  0  0  0  0  0
   -2.8286    2.2219    1.8623 O   0  0  0  0  0  0  0  0  0  0  0  0
   -3.3046    1.6979    4.0202 N   0  0  0  0  0  0  0  0  0  0  0  0
    0.1460    1.2887    2.1422 C   0  0  3  0  0  0  0  0  0  0  0  0
    1.2558    1.3562    1.0934 C   0  0  0  0  0  0  0  0  0  0  0  0
   -0.2651    2.6921    2.6150 C   0  0  0  0  0  0  0  0  0  0  0  0
    2.4648   -0.1878   -0.3114 C   0  0  0  0  0  0  0  0  0  0  0  0
    2.6108   -1.4939   -0.8170 C   0  0  0  0  0  0  0  0  0  0  0  0
    3.3485    0.8096   -0.7401 C   0  0  0  0  0  0  0  0  0  0  0  0
    3.5943   -1.7586   -1.7810 C   0  0  0  0  0  0  0  0  0  0  0  0
    4.3601    0.5220   -1.6589 C   0  0  0  0  0  0  0  0  0  0  0  0
    4.4777   -0.7586   -2.1893 C   0  0  0  0  0  0  0  0  0  0  0  0
   -2.5301    2.1901    3.0333 C   0  0  0  0  0  0  0  0  0  0  0  0
    1.3563   -2.6332    0.8474 C   0  0  0  0  0  0  0  0  0  0  0  0
  1  8  1  0  0  0  0
  1 10  1  0  0  0  0
  2  7  1  0  0  0  0
  3  9  1  0  0  0  0
  3 16  1  0  0  0  0
  4 11  1  0  0  0  0
  4 17  1  0  0  0  0
  5 16  2  0  0  0  0
  6 16  1  0  0  0  0
  7  8  1  0  0  0  0
  7  9  1  0  0  0  0
 10 11  1  0  0  0  0
 10 12  2  0  0  0  0
 11 13  2  0  0  0  0
 12 14  1  0  0  0  0
 13 15  1  0  0  0  0
 14 15  2  0  0  0  0
M  END
