
 OpenBabel10141417493D

 26 29  0  0  0  0  0  0  0  0999 V2000
    0.2328    2.4690   -0.6449 C   0  0  0  0  0  0  0  0  0  0  0  0
    1.5236    2.9453   -0.9035 C   0  0  0  0  0  0  0  0  0  0  0  0
    1.8011    4.3167   -0.9629 C   0  0  0  0  0  0  0  0  0  0  0  0
    0.7392    5.1975   -0.7264 C   0  0  0  0  0  0  0  0  0  0  0  0
   -0.5425    4.7256   -0.4603 C   0  0  0  0  0  0  0  0  0  0  0  0
   -0.8361    3.3526   -0.4371 C   0  0  0  0  0  0  0  0  0  0  0  0
   -2.2671    3.0172   -0.2476 C   0  0  0  0  0  0  0  0  0  0  0  0
   -1.3891    5.8365   -0.2644 C   0  0  0  0  0  0  0  0  0  0  0  0
   -2.8277    5.6637    0.0370 C   0  0  0  0  0  0  0  0  0  0  0  0
   -3.2635    4.1555    0.1086 C   0  0  1  0  0  0  0  0  0  0  0  0
   -4.2181    1.4274   -0.4186 C   0  0  2  0  0  0  0  0  0  0  0  0
   -2.7367    1.7658   -0.4549 C   0  0  0  0  0  0  0  0  0  0  0  0
   -4.5923    3.9599   -0.5453 N   0  0  0  0  0  0  0  0  0  0  0  0
   -5.1261    2.6464   -0.1282 C   0  0  0  0  0  0  0  0  0  0  0  0
   -0.6284    6.9725   -0.4191 C   0  0  0  0  0  0  0  0  0  0  0  0
    0.6551    6.5753   -0.7104 N   0  0  0  0  0  0  0  0  0  0  0  0
   -4.4928    0.3012    0.5889 C   0  0  0  0  0  0  0  0  0  0  0  0
   -4.5339    4.0856   -2.0054 C   0  0  0  0  0  0  0  0  0  0  0  0
   -4.4472   -0.9676    0.0492 N   0  0  0  0  0  0  0  0  0  0  0  0
   -4.6283   -2.1825    0.8609 C   0  0  3  0  0  0  0  0  0  0  0  0
   -5.2100   -3.2895   -0.0403 C   0  0  0  0  0  0  0  0  0  0  0  0
   -5.4809   -4.6193    0.6526 C   0  0  0  0  0  0  0  0  0  0  0  0
   -4.7323    0.4983    1.7818 O   0  0  0  0  0  0  0  0  0  0  0  0
   -3.3007   -2.5798    1.5363 C   0  0  0  0  0  0  0  0  0  0  0  0
   -2.3030   -2.8639    0.5532 O   0  0  0  0  0  0  0  0  0  0  0  0
    1.7383    7.4906   -0.9888 C   0  0  0  0  0  0  0  0  0  0  0  0
  1  2  1  0  0  0  0
  1  6  2  0  0  0  0
  2  3  2  0  0  0  0
  3  4  1  0  0  0  0
  4  5  2  0  0  0  0
  4 16  1  0  0  0  0
  5  8  1  0  0  0  0
  6  5  1  0  0  0  0
  7  6  1  0  0  0  0
  7 10  1  0  0  0  0
  8  9  1  0  0  0  0
  8 15  2  0  0  0  0
 10  9  1  6  0  0  0
 10 13  1  0  0  0  0
 11 12  1  0  0  0  0
 11 14  1  0  0  0  0
 11 17  1  1  0  0  0
 12  7  2  0  0  0  0
 13 14  1  0  0  0  0
 13 18  1  0  0  0  0
 16 15  1  0  0  0  0
 16 26  1  0  0  0  0
 17 19  1  0  0  0  0
 17 23  2  0  0  0  0
 19 20  1  0  0  0  0
 20 21  1  0  0  0  0
 20 24  1  0  0  0  0
 21 22  1  0  0  0  0
 24 25  1  0  0  0  0
M  END
