
 OpenBabel10141417563D

 26 31  0  0  0  0  0  0  0  0999 V2000
   -4.4599    4.8906   15.4884 C   0  0  1  0  0  0  0  0  0  0  0  0
   -3.0197    5.0754   15.0438 C   0  0  2  0  0  0  0  0  0  0  0  0
   -4.5186    4.1752   16.7811 C   0  0  0  0  0  0  0  0  0  0  0  0
   -3.0628    7.2906   16.5133 N   0  3  3  0  0  0  0  0  0  0  0  0
   -5.2165    3.8221   14.6926 C   0  0  1  0  0  0  0  0  0  0  0  0
   -5.6489    3.3767   16.7843 C   0  0  0  0  0  0  0  0  0  0  0  0
   -2.3466    5.8876   16.2210 C   0  0  2  0  0  0  0  0  0  0  0  0
   -6.2900    3.4027   15.5549 O   0  0  0  0  0  0  0  0  0  0  0  0
   -3.5819    4.2329   17.7939 C   0  0  0  0  0  0  0  0  0  0  0  0
   -2.2907    4.9705   17.5201 C   0  0  0  0  0  0  0  0  0  0  0  0
   -5.2384    6.2254   15.6712 C   0  0  0  0  0  0  0  0  0  0  0  0
   -3.0188    5.6129   13.5943 C   0  0  0  0  0  0  0  0  0  0  0  0
   -5.3022    4.4354   13.2907 C   0  0  0  0  0  0  0  0  0  0  0  0
   -2.1047    8.4386   16.0597 C   0  0  0  0  0  0  0  0  0  0  0  0
   -4.3835    7.4834   15.7484 C   0  0  0  0  0  0  0  0  0  0  0  0
   -5.9553    2.6578   17.9079 C   0  0  0  0  0  0  0  0  0  0  0  0
   -0.7394    8.4760   16.6888 C   0  0  0  0  0  0  0  0  0  0  0  0
    0.2308    9.5606   16.2871 C   0  0  0  0  0  0  0  0  0  0  0  0
    0.4953    8.1386   15.8852 C   0  0  0  0  0  0  0  0  0  0  0  0
   -3.8739    3.4823   18.9297 C   0  0  0  0  0  0  0  0  0  0  0  0
   -3.9398    4.7713   12.6631 C   0  0  0  0  0  0  0  0  0  0  0  0
   -2.3255    3.8188   14.8873 O   0  0  0  0  0  0  0  0  0  0  0  0
   -6.3630    4.6662   12.7194 O   0  0  0  0  0  0  0  0  0  0  0  0
   -5.0688    2.7185   18.9919 C   0  0  0  0  0  0  0  0  0  0  0  0
   -3.4065    7.5491   17.9983 C   0  0  0  0  0  0  0  0  0  0  0  0
   -7.0569    1.8712   17.9844 O   0  0  0  0  0  0  0  0  0  0  0  0
  1  3  1  6  0  0  0
  1 11  1  0  0  0  0
  2  1  1  0  0  0  0
  2 22  1  6  0  0  0
  4 15  1  0  0  0  0
  5  1  1  0  0  0  0
  5  8  1  1  0  0  0
  6  3  1  0  0  0  0
  6  8  1  0  0  0  0
  7  2  1  0  0  0  0
  7  4  1  0  0  0  0
  7 10  1  6  0  0  0
  9  3  2  0  0  0  0
 10  9  1  0  0  0  0
 12  2  1  0  0  0  0
 13  5  1  0  0  0  0
 14  4  1  0  0  0  0
 15 11  1  0  0  0  0
 16  6  2  0  0  0  0
 17 14  1  0  0  0  0
 18 17  1  0  0  0  0
 18 19  1  0  0  0  0
 19 17  1  0  0  0  0
 20  9  1  0  0  0  0
 21 13  1  0  0  0  0
 21 12  1  0  0  0  0
 23 13  2  0  0  0  0
 24 20  2  0  0  0  0
 24 16  1  0  0  0  0
 25  4  1  0  0  0  0
 26 16  1  0  0  0  0
M  CHG  1   4   1
M  END
