8226
 OpenBabel10141417493D

 25 28  0  0  1  0  0  0  0  0999 V2000
    2.9192   -1.0517   -1.1314 O   0  0  0  0  0  0  0  0  0  0  0  0
    4.1045    2.4441    0.9672 O   0  0  0  0  0  0  0  0  0  0  0  0
    5.3397   -1.5306   -3.6071 N   0  0  0  0  0  0  0  0  0  0  0  0
   10.0549    2.0065   -4.5329 N   0  0  0  0  0  0  0  0  0  0  0  0
    4.1104   -0.4343    0.7189 N   0  0  0  0  0  0  0  0  0  0  0  0
    6.2070   -0.3490   -3.3795 C   0  0  1  0  0  0  0  0  0  0  0  0
    6.9680   -0.3304   -2.0218 C   0  0  0  0  0  0  0  0  0  0  0  0
    7.0967   -0.1891   -4.6699 C   0  0  0  0  0  0  0  0  0  0  0  0
    5.2350   -1.8052   -1.0293 C   0  0  1  0  0  0  0  0  0  0  0  0
    5.0197   -2.3738   -2.4453 C   0  0  0  0  0  0  0  0  0  0  0  0
    8.2586    0.7065   -4.4423 C   0  0  0  0  0  0  0  0  0  0  0  0
    8.1933    0.4983   -1.9086 C   0  0  0  0  0  0  0  0  0  0  0  0
    8.7087    0.9519   -3.1295 C   0  0  0  0  0  0  0  0  0  0  0  0
    6.4956   -0.9981   -0.9545 C   0  0  0  0  0  0  0  0  0  0  0  0
    9.8400    1.7500   -3.1959 C   0  0  0  0  0  0  0  0  0  0  0  0
    4.1509   -1.2085   -4.3945 C   0  0  0  0  0  0  0  0  0  0  0  0
    3.9806   -1.0427   -0.5301 C   0  0  0  0  0  0  0  0  0  0  0  0
    9.0990    1.3782   -5.2995 C   0  0  0  0  0  0  0  0  0  0  0  0
    8.8772    0.8898   -0.7479 C   0  0  0  0  0  0  0  0  0  0  0  0
   10.5344    2.1368   -2.0483 C   0  0  0  0  0  0  0  0  0  0  0  0
   10.0269    1.6882   -0.8212 C   0  0  0  0  0  0  0  0  0  0  0  0
    2.9822    0.2940    1.3222 C   0  0  1  0  0  0  0  0  0  0  0  0
    3.0517    0.3679    2.8662 C   0  0  0  0  0  0  0  0  0  0  0  0
    2.8890    1.7269    0.7459 C   0  0  0  0  0  0  0  0  0  0  0  0
    2.8731   -0.9488    3.6163 C   0  0  0  0  0  0  0  0  0  0  0  0
  1 17  2  0  0  0  0
  2 24  1  0  0  0  0
  3 10  1  0  0  0  0
  3 16  1  0  0  0  0
  4 15  1  0  0  0  0
  4 18  1  0  0  0  0
  5 17  1  0  0  0  0
  6  3  1  6  0  0  0
  6  7  1  0  0  0  0
  6  8  1  0  0  0  0
  7 12  1  0  0  0  0
  7 14  2  0  0  0  0
  8 11  1  0  0  0  0
  9 10  1  0  0  0  0
  9 14  1  0  0  0  0
  9 17  1  6  0  0  0
 11 13  1  0  0  0  0
 11 18  2  0  0  0  0
 12 13  2  0  0  0  0
 12 19  1  0  0  0  0
 13 15  1  0  0  0  0
 15 20  2  0  0  0  0
 19 21  2  0  0  0  0
 20 21  1  0  0  0  0
 22  5  1  6  0  0  0
 22 23  1  0  0  0  0
 22 24  1  0  0  0  0
 23 25  1  0  0  0  0
M  END
