422
 OpenBabel10141417503D

 17 18  0  0  1  0  0  0  0  0999 V2000
    0.5159   -0.1961   -1.4976 O   0  0  0  0  0  0  0  0  0  0  0  0
    1.1491    1.8365   -0.6314 O   0  0  0  0  0  0  0  0  0  0  0  0
   -0.9468    0.3021    1.7009 N   0  0  0  0  0  0  0  0  0  0  0  0
   -1.5030    1.3844    0.8534 C   0  0  3  0  0  0  0  0  0  0  0  0
   -3.0030    1.5548    1.1855 C   0  0  0  0  0  0  0  0  0  0  0  0
   -1.2200    1.1978   -0.6721 C   0  0  3  0  0  0  0  0  0  0  0  0
   -3.7861    0.2530    1.0314 C   0  0  0  0  0  0  0  0  0  0  0  0
   -3.1320   -0.8614    1.8404 C   0  0  0  0  0  0  0  0  0  0  0  0
   -1.6422   -0.9751    1.5330 C   0  0  0  0  0  0  0  0  0  0  0  0
   -1.7568    2.3432   -1.5303 C   0  0  0  0  0  0  0  0  0  0  0  0
    0.2838    1.0148   -0.9023 C   0  0  0  0  0  0  0  0  0  0  0  0
   -2.7040    2.0976   -2.5387 C   0  0  0  0  0  0  0  0  0  0  0  0
   -1.3241    3.6630   -1.3270 C   0  0  0  0  0  0  0  0  0  0  0  0
   -3.2050    3.1471   -3.3147 C   0  0  0  0  0  0  0  0  0  0  0  0
   -1.8213    4.7075   -2.1064 C   0  0  0  0  0  0  0  0  0  0  0  0
   -2.7628    4.4506   -3.0988 C   0  0  0  0  0  0  0  0  0  0  0  0
    1.8865   -0.4846   -1.7841 C   0  0  0  0  0  0  0  0  0  0  0  0
  1 11  1  0  0  0  0
  1 17  1  0  0  0  0
  2 11  2  0  0  0  0
  3  4  1  0  0  0  0
  3  9  1  0  0  0  0
  4  5  1  0  0  0  0
  4  6  1  0  0  0  0
  5  7  1  0  0  0  0
  6 10  1  0  0  0  0
  6 11  1  0  0  0  0
  7  8  1  0  0  0  0
  8  9  1  0  0  0  0
 10 12  2  0  0  0  0
 10 13  1  0  0  0  0
 12 14  1  0  0  0  0
 13 15  2  0  0  0  0
 14 16  2  0  0  0  0
 15 16  1  0  0  0  0
M  END
