
 OpenBabel10141419233D

 11 10  0  0  0  0  0  0  0  0999 V2000
    2.6738   -0.8105   -0.0082 C   0  0  0  0  0  0  0  0  0  0  0  0
    2.9434   -0.7863   -1.5146 C   0  0  3  0  0  0  0  0  0  0  0  0
    2.3696    0.4815   -2.2255 C   0  0  0  0  0  0  0  0  0  0  0  0
    2.5619    0.5173   -3.7847 N   0  3  0  0  0  0  0  0  0  0  0  0
    4.0335    0.5645   -4.1645 C   0  0  0  0  0  0  0  0  0  0  0  0
    1.9020   -0.6782   -4.4520 C   0  0  0  0  0  0  0  0  0  0  0  0
    1.9051    1.7843   -4.3558 C   0  0  0  0  0  0  0  0  0  0  0  0
    4.3500   -1.0452   -1.7384 O   0  0  0  0  0  0  0  0  0  0  0  0
    5.2660   -0.1592   -1.2659 C   0  0  0  0  0  0  0  0  0  0  0  0
    4.9695    0.9330   -0.7784 O   0  0  0  0  0  0  0  0  0  0  0  0
    6.6540   -0.6144   -1.5315 C   0  0  0  0  0  0  0  0  0  0  0  0
  1  2  1  0  0  0  0
  2  3  1  0  0  0  0
  2  8  1  0  0  0  0
  3  4  1  0  0  0  0
  4  5  1  0  0  0  0
  4  6  1  0  0  0  0
  4  7  1  0  0  0  0
  8  9  1  0  0  0  0
  9 10  2  0  0  0  0
  9 11  1  0  0  0  0
M  CHG  1   4   1
M  END
