849
 OpenBabel10141417493D

 18 19  0  0  1  0  0  0  0  0999 V2000
    2.4933   -0.1064   -2.0317 O   0  0  0  0  0  0  0  0  0  0  0  0
    5.3499    1.9829    1.0224 O   0  0  0  0  0  0  0  0  0  0  0  0
    3.4508   -1.8788    2.0725 O   0  0  0  0  0  0  0  0  0  0  0  0
    2.7641   -0.9319    0.0899 N   0  0  0  0  0  0  0  0  0  0  0  0
    4.1414    0.1908    1.6048 N   0  0  0  0  0  0  0  0  0  0  0  0
    3.4615    1.4132   -0.4137 C   0  0  3  0  0  0  0  0  0  0  0  0
    4.2587    2.0587   -1.5919 C   0  0  0  0  0  0  0  0  0  0  0  0
    2.2911    2.3694   -0.0374 C   0  0  0  0  0  0  0  0  0  0  0  0
    2.8780    0.0647   -0.8704 C   0  0  0  0  0  0  0  0  0  0  0  0
    4.4179    1.2249    0.7597 C   0  0  0  0  0  0  0  0  0  0  0  0
    5.4475    1.2316   -2.0852 C   0  0  0  0  0  0  0  0  0  0  0  0
    3.4220   -0.9205    1.3009 C   0  0  0  0  0  0  0  0  0  0  0  0
    2.1931    2.9910    1.2223 C   0  0  0  0  0  0  0  0  0  0  0  0
    1.2821    2.6577   -0.9796 C   0  0  0  0  0  0  0  0  0  0  0  0
    2.1128   -2.1783   -0.2758 C   0  0  0  0  0  0  0  0  0  0  0  0
    1.1325    3.8509    1.5263 C   0  0  0  0  0  0  0  0  0  0  0  0
    0.2272    3.5230   -0.6760 C   0  0  0  0  0  0  0  0  0  0  0  0
    0.1511    4.1176    0.5782 C   0  0  0  0  0  0  0  0  0  0  0  0
  1  9  2  0  0  0  0
  2 10  2  0  0  0  0
  3 12  2  0  0  0  0
  4  9  1  0  0  0  0
  4 12  1  0  0  0  0
  4 15  1  0  0  0  0
  5 10  1  0  0  0  0
  5 12  1  0  0  0  0
  6  7  1  0  0  0  0
  6  8  1  0  0  0  0
  6  9  1  0  0  0  0
  6 10  1  0  0  0  0
  7 11  1  0  0  0  0
  8 13  2  0  0  0  0
  8 14  1  0  0  0  0
 13 16  1  0  0  0  0
 14 17  2  0  0  0  0
 16 18  2  0  0  0  0
 17 18  1  0  0  0  0
M  END
