1577
 OpenBabel10141417483D

 11 11  0  0  1  0  0  0  0  0999 V2000
    0.0603    0.4208   -2.2959 N   0  0  0  0  0  0  0  0  0  0  0  0
    0.1806    1.2441   -1.0725 C   0  0  2  0  0  0  0  0  0  0  0  0
    0.9859    0.4472   -0.0114 C   0  0  0  0  0  0  0  0  0  0  0  0
    1.2904    1.2094    1.2613 C   0  0  0  0  0  0  0  0  0  0  0  0
   -1.1958    1.6510   -0.5303 C   0  0  0  0  0  0  0  0  0  0  0  0
    0.8151    0.7423    2.4939 C   0  0  0  0  0  0  0  0  0  0  0  0
    2.0616    2.3820    1.2359 C   0  0  0  0  0  0  0  0  0  0  0  0
   -0.5537    1.1364   -3.4096 C   0  0  0  0  0  0  0  0  0  0  0  0
    1.0860    1.4373    3.6736 C   0  0  0  0  0  0  0  0  0  0  0  0
    2.3281    3.0786    2.4165 C   0  0  0  0  0  0  0  0  0  0  0  0
    1.8405    2.6096    3.6332 C   0  0  0  0  0  0  0  0  0  0  0  0
  1  8  1  0  0  0  0
  2  5  1  1  0  0  0
  2  3  1  0  0  0  0
  2  1  1  0  0  0  0
  3  4  1  0  0  0  0
  4  6  2  0  0  0  0
  4  7  1  0  0  0  0
  6  9  1  0  0  0  0
  7 10  2  0  0  0  0
  9 11  2  0  0  0  0
 10 11  1  0  0  0  0
M  END
