
 OpenBabel10141417483D

 24 26  0  0  1  0  0  0  0  0999 V2000
    4.6252    2.0173    1.6054 Br  0  5  0  0  0  0  0  0  0  0  0  0
    1.8644    0.4984   -0.7816 C   0  0  3  0  0  0  0  0  0  0  0  0
    1.6595   -0.9858   -0.9503 C   0  0  3  0  0  0  0  0  0  0  0  0
    1.0358    0.8953    0.4320 C   0  0  1  0  0  0  0  0  0  0  0  0
    1.2235   -0.0540   -1.9339 O   0  0  0  0  0  0  0  0  0  0  0  0
    0.6960   -1.4018    0.1514 C   0  0  1  0  0  0  0  0  0  0  0  0
    0.9337   -0.4036    1.2962 N   0  3  0  0  0  0  0  0  0  0  0  0
   -0.3980    1.2973    0.0183 C   0  0  0  0  0  0  0  0  0  0  0  0
   -0.7641   -1.2777   -0.3093 C   0  0  0  0  0  0  0  0  0  0  0  0
    2.2948   -0.7006    1.9682 C   0  0  0  0  0  0  0  0  0  0  0  0
   -0.0586   -0.3480    2.4325 C   0  0  0  0  0  0  0  0  0  0  0  0
   -1.1880    0.1655   -0.6802 C   0  0  1  0  0  0  0  0  0  0  0  0
   -2.6084    0.2683   -0.4506 O   0  0  0  0  0  0  0  0  0  0  0  0
   -3.2631    1.2192   -1.1915 C   0  0  0  0  0  0  0  0  0  0  0  0
   -2.7086    2.1256   -1.7884 O   0  0  0  0  0  0  0  0  0  0  0  0
   -4.7527    0.9039   -1.2866 C   0  0  1  0  0  0  0  0  0  0  0  0
   -5.4128    0.5960    0.0474 C   0  0  0  0  0  0  0  0  0  0  0  0
   -5.4676    2.0373   -2.0359 C   0  0  0  0  0  0  0  0  0  0  0  0
   -4.9401    2.1990   -3.3548 O   0  0  0  0  0  0  0  0  0  0  0  0
   -6.5092   -0.2798    0.0873 C   0  0  0  0  0  0  0  0  0  0  0  0
   -7.1204   -0.5982    1.3012 C   0  0  0  0  0  0  0  0  0  0  0  0
   -6.6436   -0.0489    2.4894 C   0  0  0  0  0  0  0  0  0  0  0  0
   -5.5615    0.8263    2.4655 C   0  0  0  0  0  0  0  0  0  0  0  0
   -4.9590    1.1585    1.2523 C   0  0  0  0  0  0  0  0  0  0  0  0
  2  3  1  0  0  0  0
  2  4  1  0  0  0  0
  2  5  1  0  0  0  0
  3  6  1  0  0  0  0
  3  5  1  0  0  0  0
  4  7  1  6  0  0  0
  4  8  1  0  0  0  0
  6  9  1  6  0  0  0
  6  7  1  0  0  0  0
  7 10  1  0  0  0  0
  7 11  1  0  0  0  0
  8 12  1  0  0  0  0
  9 12  1  0  0  0  0
 12 13  1  1  0  0  0
 13 14  1  0  0  0  0
 14 15  2  0  0  0  0
 16 14  1  1  0  0  0
 16 17  1  0  0  0  0
 16 18  1  0  0  0  0
 17 20  2  0  0  0  0
 17 24  1  0  0  0  0
 18 19  1  0  0  0  0
 20 21  1  0  0  0  0
 21 22  2  0  0  0  0
 22 23  1  0  0  0  0
 23 24  2  0  0  0  0
M  CHG  2   1  -1   7   1
M  END
