763
 OpenBabel10141417483D

  7  7  0  0  0  0  0  0  0  0999 V2000
    0.8317    0.2732    0.0639 S   0  0  0  0  0  0  0  0  0  0  0  0
    3.2943   -1.0325    0.0742 N   0  0  0  0  0  0  0  0  0  0  0  0
    3.3801    1.1945    0.0780 N   0  0  0  0  0  0  0  0  0  0  0  0
    2.4762    0.1181    0.0718 C   0  0  0  0  0  0  0  0  0  0  0  0
    4.6164   -0.6274    0.0828 C   0  0  0  0  0  0  0  0  0  0  0  0
    2.8842   -2.4188    0.0653 C   0  0  0  0  0  0  0  0  0  0  0  0
    4.6628    0.7113    0.0848 C   0  0  0  0  0  0  0  0  0  0  0  0
  1  4  2  0  0  0  0
  2  4  1  0  0  0  0
  2  5  1  0  0  0  0
  2  6  1  0  0  0  0
  3  4  1  0  0  0  0
  3  7  1  0  0  0  0
  5  7  2  0  0  0  0
M  END
