232
 OpenBabel10141417483D

 20 21  0  0  1  0  0  0  0  0999 V2000
    3.1286   -0.7990    1.3614 Cl  0  0  0  0  0  0  0  0  0  0  0  0
    2.5431   -6.5218   -3.5227 Cl  0  0  0  0  0  0  0  0  0  0  0  0
    3.4141   -0.3499   -3.9800 S   0  0  0  0  0  0  0  0  0  0  0  0
    3.1118   -5.2252   -6.4238 S   0  0  0  0  0  0  0  0  0  0  0  0
    2.6700    0.1236   -5.1279 O   0  0  0  0  0  0  0  0  0  0  0  0
    4.8277   -0.0721   -3.8366 O   0  0  0  0  0  0  0  0  0  0  0  0
    4.2922   -6.0537   -6.3815 O   0  0  0  0  0  0  0  0  0  0  0  0
    1.7858   -5.7325   -6.6827 O   0  0  0  0  0  0  0  0  0  0  0  0
    2.6302    0.2180   -2.5848 N   0  0  0  0  0  0  0  0  0  0  0  0
    2.7532   -1.8946   -1.4747 N   0  0  0  0  0  0  0  0  0  0  0  0
    3.4013   -4.1357   -7.6754 N   0  0  0  0  0  0  0  0  0  0  0  0
    3.1345   -0.4859   -1.3881 C   0  0  3  0  0  0  0  0  0  0  0  0
    3.2033   -2.0858   -3.8732 C   0  0  0  0  0  0  0  0  0  0  0  0
    2.9570   -2.6443   -2.6236 C   0  0  0  0  0  0  0  0  0  0  0  0
    2.5308    0.0843   -0.0793 C   0  0  0  0  0  0  0  0  0  0  0  0
    3.2650   -2.8529   -5.0435 C   0  0  0  0  0  0  0  0  0  0  0  0
    2.6452    1.6945   -2.5021 C   0  0  0  0  0  0  0  0  0  0  0  0
    2.7435   -4.0296   -2.5772 C   0  0  0  0  0  0  0  0  0  0  0  0
    3.0675   -4.2347   -4.9666 C   0  0  0  0  0  0  0  0  0  0  0  0
    2.8093   -4.8284   -3.7308 C   0  0  0  0  0  0  0  0  0  0  0  0
  1 15  1  0  0  0  0
  2 20  1  0  0  0  0
  3  5  2  0  0  0  0
  3  6  2  0  0  0  0
  3  9  1  0  0  0  0
  3 13  1  0  0  0  0
  4  7  2  0  0  0  0
  4  8  2  0  0  0  0
  4 11  1  0  0  0  0
  4 19  1  0  0  0  0
  9 12  1  0  0  0  0
  9 17  1  0  0  0  0
 10 12  1  0  0  0  0
 10 14  1  0  0  0  0
 12 15  1  0  0  0  0
 13 14  1  0  0  0  0
 13 16  2  0  0  0  0
 14 18  2  0  0  0  0
 16 19  1  0  0  0  0
 18 20  1  0  0  0  0
 19 20  2  0  0  0  0
M  END
