1433
 OpenBabel10141417503D

 26 27  0  0  1  0  0  0  0  0999 V2000
    1.3538   -6.1029   -2.2499 O   0  0  0  0  0  0  0  0  0  0  0  0
   -0.4966   -5.3200   -3.4677 O   0  0  0  0  0  0  0  0  0  0  0  0
    0.4119   -2.5668    2.7514 N   0  0  0  0  0  0  0  0  0  0  0  0
    1.1687   -5.6800    0.2390 C   0  0  0  0  0  0  0  0  0  0  0  0
    1.1926   -4.5842    1.4130 C   0  0  0  0  0  0  0  0  0  0  0  0
    1.3808   -5.0277   -1.2541 C   0  0  3  0  0  0  0  0  0  0  0  0
    0.1879   -3.3886    1.5160 C   0  0  3  0  0  0  0  0  0  0  0  0
   -0.2833   -6.3293    0.3175 C   0  0  0  0  0  0  0  0  0  0  0  0
    2.3892   -6.7113    0.5445 C   0  0  0  0  0  0  0  0  0  0  0  0
    2.6199   -4.1167   -1.4816 C   0  0  0  0  0  0  0  0  0  0  0  0
    0.1007   -2.4780    0.2858 C   0  0  0  0  0  0  0  0  0  0  0  0
   -0.5924   -7.4931    1.0446 C   0  0  0  0  0  0  0  0  0  0  0  0
    3.6007   -6.2621    1.1322 C   0  0  0  0  0  0  0  0  0  0  0  0
   -1.3916   -5.6989   -0.2977 C   0  0  0  0  0  0  0  0  0  0  0  0
    2.3628   -8.0968    0.2568 C   0  0  0  0  0  0  0  0  0  0  0  0
    2.4576   -3.1244   -2.6529 C   0  0  0  0  0  0  0  0  0  0  0  0
   -0.5978   -1.5047    2.8861 C   0  0  0  0  0  0  0  0  0  0  0  0
    1.7458   -1.9692    2.8812 C   0  0  0  0  0  0  0  0  0  0  0  0
   -1.8916   -8.0390    1.0571 C   0  0  0  0  0  0  0  0  0  0  0  0
    4.7092   -7.0996    1.3615 C   0  0  0  0  0  0  0  0  0  0  0  0
   -2.6905   -6.2181   -0.2634 C   0  0  0  0  0  0  0  0  0  0  0  0
    3.4541   -8.9535    0.5461 C   0  0  0  0  0  0  0  0  0  0  0  0
    0.2326   -6.2180   -3.0026 C   0  0  0  0  0  0  0  0  0  0  0  0
   -2.9389   -7.4062    0.3972 C   0  0  0  0  0  0  0  0  0  0  0  0
    4.6398   -8.4496    1.0668 C   0  0  0  0  0  0  0  0  0  0  0  0
   -0.1073   -7.7256   -3.0921 C   0  0  0  0  0  0  0  0  0  0  0  0
  1  6  1  0  0  0  0
  1 23  1  0  0  0  0
  2 23  2  0  0  0  0
  3  7  1  0  0  0  0
  3 17  1  0  0  0  0
  3 18  1  0  0  0  0
  4  5  1  0  0  0  0
  4  6  1  0  0  0  0
  4  8  1  0  0  0  0
  4  9  1  0  0  0  0
  5  7  1  0  0  0  0
  6 10  1  0  0  0  0
  7 11  1  0  0  0  0
  8 12  2  0  0  0  0
  8 14  1  0  0  0  0
  9 13  2  0  0  0  0
  9 15  1  0  0  0  0
 10 16  1  0  0  0  0
 12 19  1  0  0  0  0
 13 20  1  0  0  0  0
 14 21  2  0  0  0  0
 15 22  2  0  0  0  0
 19 24  2  0  0  0  0
 20 25  2  0  0  0  0
 21 24  1  0  0  0  0
 22 25  1  0  0  0  0
 23 26  1  0  0  0  0
M  END
