959
 OpenBabel10141417533D

 27 30  0  0  1  0  0  0  0  0999 V2000
   -1.0262  -17.5491    1.1405 O   0  0  0  0  0  0  0  0  0  0  0  0
   -1.7225  -12.0712   -0.1300 O   0  0  0  0  0  0  0  0  0  0  0  0
   -0.7262  -17.0683   -2.3453 O   0  0  0  0  0  0  0  0  0  0  0  0
   -3.0883  -18.5060   -0.9010 O   0  0  0  0  0  0  0  0  0  0  0  0
    0.4096   -8.3250    2.4110 O   0  0  0  0  0  0  0  0  0  0  0  0
   -0.0561  -15.3787    0.4596 C   0  0  1  0  0  0  0  0  0  0  0  0
    1.1181  -15.0948   -0.5028 C   0  0  2  0  0  0  0  0  0  0  0  0
    1.7410  -13.6893   -0.4565 C   0  0  1  0  0  0  0  0  0  0  0  0
    0.6174  -12.6112   -0.6537 C   0  0  2  0  0  0  0  0  0  0  0  0
   -0.3741  -16.8651    0.0741 C   0  0  1  0  0  0  0  0  0  0  0  0
   -1.1400  -14.3349    0.1777 C   0  0  0  0  0  0  0  0  0  0  0  0
   -0.6155  -12.8841    0.2690 C   0  0  2  0  0  0  0  0  0  0  0  0
    2.0152  -16.3188   -0.3576 C   0  0  0  0  0  0  0  0  0  0  0  0
    1.2076  -11.1466   -0.5794 C   0  0  1  0  0  0  0  0  0  0  0  0
    1.0365  -17.4863   -0.1226 C   0  0  0  0  0  0  0  0  0  0  0  0
    2.6705  -13.4268    0.7408 C   0  0  0  0  0  0  0  0  0  0  0  0
    3.2120  -11.9916    0.8081 C   0  0  1  0  0  0  0  0  0  0  0  0
    0.2757  -15.3211    1.9755 C   0  0  0  0  0  0  0  0  0  0  0  0
    2.0562  -11.0037    0.6949 C   0  0  0  0  0  0  0  0  0  0  0  0
   -1.2249  -17.0095   -1.2179 C   0  0  0  0  0  0  0  0  0  0  0  0
    2.0905  -10.8640   -1.8249 C   0  0  0  0  0  0  0  0  0  0  0  0
    0.1190  -10.0874   -0.6574 C   0  0  0  0  0  0  0  0  0  0  0  0
    4.1007  -11.8485    2.0533 C   0  0  0  0  0  0  0  0  0  0  0  0
    1.7815  -10.0821    1.6388 C   0  0  0  0  0  0  0  0  0  0  0  0
   -2.7317  -17.1396   -1.0457 C   0  0  0  0  0  0  0  0  0  0  0  0
   -0.1375   -9.1703    0.2831 C   0  0  0  0  0  0  0  0  0  0  0  0
    0.6614   -9.1246    1.5172 C   0  0  0  0  0  0  0  0  0  0  0  0
  3 20  2  0  0  0  0
  4 25  1  0  0  0  0
  5 27  2  0  0  0  0
  6  7  1  0  0  0  0
  6 10  1  0  0  0  0
  6 11  1  0  0  0  0
  6 18  1  6  0  0  0
  7  8  1  0  0  0  0
  7 13  1  6  0  0  0
  8 16  1  1  0  0  0
  9  8  1  6  0  0  0
  9 12  1  0  0  0  0
  9 14  1  0  0  0  0
 10 15  1  0  0  0  0
 10  1  1  1  0  0  0
 10 20  1  0  0  0  0
 11 12  1  0  0  0  0
 12  2  1  6  0  0  0
 13 15  1  0  0  0  0
 14 19  1  0  0  0  0
 14 22  1  0  0  0  0
 14 21  1  6  0  0  0
 16 17  1  0  0  0  0
 17 19  1  0  0  0  0
 17 23  1  1  0  0  0
 19 24  2  0  0  0  0
 20 25  1  0  0  0  0
 22 26  2  0  0  0  0
 24 27  1  0  0  0  0
 26 27  1  0  0  0  0
M  END
