1403
 OpenBabel10141417483D

 23 25  0  0  1  0  0  0  0  0999 V2000
    3.6066    0.4232   -1.2782 C   0  0  0  0  0  0  0  0  0  0  0  0
    3.8313   -0.8374   -0.7386 C   0  0  0  0  0  0  0  0  0  0  0  0
    2.7569   -1.5798   -0.2638 C   0  0  0  0  0  0  0  0  0  0  0  0
    2.3107    0.9466   -1.3144 C   0  0  0  0  0  0  0  0  0  0  0  0
    1.2058    0.2245   -0.8224 C   0  0  0  0  0  0  0  0  0  0  0  0
    1.4488   -1.0689   -0.3228 C   0  0  0  0  0  0  0  0  0  0  0  0
    0.1535   -2.1252    0.2796 S   0  0  0  0  0  0  0  0  0  0  0  0
   -0.1050    0.7726   -0.9016 N   0  0  0  0  0  0  0  0  0  0  0  0
   -1.2900   -0.0104   -0.8980 C   0  0  0  0  0  0  0  0  0  0  0  0
   -1.2905   -1.3325   -0.3957 C   0  0  0  0  0  0  0  0  0  0  0  0
   -2.4756   -2.0643   -0.3410 C   0  0  0  0  0  0  0  0  0  0  0  0
   -3.6564   -1.5159   -0.8045 C   0  0  0  0  0  0  0  0  0  0  0  0
   -3.6927   -0.2349   -1.3398 C   0  0  0  0  0  0  0  0  0  0  0  0
   -2.5023    0.5050   -1.4128 C   0  0  0  0  0  0  0  0  0  0  0  0
   -0.2487    2.1719   -0.3924 C   0  0  0  0  0  0  0  0  0  0  0  0
    0.0041    2.3348    1.1302 C   0  0  1  0  0  0  0  0  0  0  0  0
   -0.2104    3.8179    1.5480 C   0  0  0  0  0  0  0  0  0  0  0  0
   -0.9332    1.4562    1.9793 C   0  0  0  0  0  0  0  0  0  0  0  0
    0.6428    4.8327    0.8944 N   0  0  0  0  0  0  0  0  0  0  0  0
    0.2181    6.1776    1.3069 C   0  0  0  0  0  0  0  0  0  0  0  0
    2.0655    4.6636    1.2022 C   0  0  0  0  0  0  0  0  0  0  0  0
   -4.8327    0.3497   -1.8172 O   0  0  0  0  0  0  0  0  0  0  0  0
   -6.0431   -0.1162   -1.2146 C   0  0  0  0  0  0  0  0  0  0  0  0
  1  2  1  0  0  0  0
  2  3  2  0  0  0  0
  3  6  1  0  0  0  0
  4  1  2  0  0  0  0
  5  6  2  0  0  0  0
  5  4  1  0  0  0  0
  6  7  1  0  0  0  0
  7 10  1  0  0  0  0
  8 15  1  0  0  0  0
  8  5  1  0  0  0  0
  9  8  1  0  0  0  0
  9 10  2  0  0  0  0
 10 11  1  0  0  0  0
 11 12  2  0  0  0  0
 12 13  1  0  0  0  0
 13 14  2  0  0  0  0
 13 22  1  0  0  0  0
 14  9  1  0  0  0  0
 16 15  1  6  0  0  0
 16 17  1  0  0  0  0
 16 18  1  0  0  0  0
 17 19  1  0  0  0  0
 19 20  1  0  0  0  0
 19 21  1  0  0  0  0
 22 23  1  0  0  0  0
M  END
