992
 OpenBabel10141417513D

 10  9  0  0  0  0  0  0  0  0999 V2000
   -2.6076   -0.4711    0.8197 O   0  0  0  0  0  0  0  0  0  0  0  0
   -3.8703    1.5540   -1.4203 O   0  0  0  0  0  0  0  0  0  0  0  0
   -1.8805    1.3605    1.9998 O   0  0  0  0  0  0  0  0  0  0  0  0
   -3.9063    4.6333   -2.0577 N   0  0  0  0  0  0  0  0  0  0  0  0
   -1.7534    2.4918   -0.7606 C   0  0  0  0  0  0  0  0  0  0  0  0
   -1.2854    1.1101   -0.3266 C   0  0  0  0  0  0  0  0  0  0  0  0
   -3.2509    2.5345   -1.0008 C   0  0  0  0  0  0  0  0  0  0  0  0
   -3.9471    3.8742   -0.8068 C   0  0  0  0  0  0  0  0  0  0  0  0
   -1.9406    0.7042    0.9717 C   0  0  0  0  0  0  0  0  0  0  0  0
   -3.2967   -0.9176    1.9866 C   0  0  0  0  0  0  0  0  0  0  0  0
  1  9  1  0  0  0  0
  1 10  1  0  0  0  0
  2  7  2  0  0  0  0
  3  9  2  0  0  0  0
  4  8  1  0  0  0  0
  5  6  1  0  0  0  0
  5  7  1  0  0  0  0
  6  9  1  0  0  0  0
  7  8  1  0  0  0  0
M  END
