4167
 OpenBabel10141417563D

 22 25  0  0  1  0  0  0  0  0999 V2000
    0.2580   -2.2240   -0.4217 S   0  0  0  0  0  0  0  0  0  0  0  0
   -3.4075    3.4897    1.6056 N   0  0  0  0  0  0  0  0  0  0  0  0
   -1.8152    1.5328    1.5723 C   0  0  3  0  0  0  0  0  0  0  0  0
   -0.4344    1.0399    1.0915 C   0  0  0  0  0  0  0  0  0  0  0  0
   -1.9293    1.4107    3.0995 C   0  0  0  0  0  0  0  0  0  0  0  0
   -2.1008    2.9881    1.1561 C   0  0  0  0  0  0  0  0  0  0  0  0
   -0.2734    0.8784   -0.4476 C   0  0  0  0  0  0  0  0  0  0  0  0
   -3.2923    1.9124    3.5690 C   0  0  0  0  0  0  0  0  0  0  0  0
   -3.5733    3.3266    3.0561 C   0  0  0  0  0  0  0  0  0  0  0  0
    1.1436    0.4058   -0.7537 C   0  0  0  0  0  0  0  0  0  0  0  0
   -1.3390   -0.0252   -1.0546 C   0  0  0  0  0  0  0  0  0  0  0  0
   -4.5163    2.9045    0.8538 C   0  0  0  0  0  0  0  0  0  0  0  0
    1.4775   -0.9596   -0.7357 C   0  0  0  0  0  0  0  0  0  0  0  0
   -1.2161   -1.4232   -1.0245 C   0  0  0  0  0  0  0  0  0  0  0  0
   -2.5048    0.5418   -1.6033 C   0  0  0  0  0  0  0  0  0  0  0  0
    2.1544    1.3523   -1.0016 C   0  0  0  0  0  0  0  0  0  0  0  0
    2.8018   -1.3564   -0.9621 C   0  0  0  0  0  0  0  0  0  0  0  0
   -2.2670   -2.2252   -1.4886 C   0  0  0  0  0  0  0  0  0  0  0  0
    3.4683    0.9461   -1.2317 C   0  0  0  0  0  0  0  0  0  0  0  0
   -3.5465   -0.2640   -2.0618 C   0  0  0  0  0  0  0  0  0  0  0  0
    3.7934   -0.4068   -1.2104 C   0  0  0  0  0  0  0  0  0  0  0  0
   -3.4314   -1.6481   -1.9963 C   0  0  0  0  0  0  0  0  0  0  0  0
  1 13  1  0  0  0  0
  1 14  1  0  0  0  0
  2  6  1  0  0  0  0
  2  9  1  0  0  0  0
  2 12  1  0  0  0  0
  3  4  1  0  0  0  0
  3  5  1  0  0  0  0
  3  6  1  0  0  0  0
  4  7  1  0  0  0  0
  5  8  1  0  0  0  0
  7 10  1  0  0  0  0
  7 11  1  0  0  0  0
  8  9  1  0  0  0  0
 10 13  1  0  0  0  0
 10 16  2  0  0  0  0
 11 14  1  0  0  0  0
 11 15  2  0  0  0  0
 13 17  2  0  0  0  0
 14 18  2  0  0  0  0
 15 20  1  0  0  0  0
 16 19  1  0  0  0  0
 17 21  1  0  0  0  0
 18 22  1  0  0  0  0
 19 21  2  0  0  0  0
 20 22  2  0  0  0  0
M  END
