1603
 OpenBabel10141417513D

 26 28  0  0  1  0  0  0  0  0999 V2000
   -3.8852    1.5458    0.4021 S   0  0  0  0  0  0  0  0  0  0  0  0
   -0.3548    3.8034    0.0058 O   0  0  0  0  0  0  0  0  0  0  0  0
   -1.2185    1.7568   -3.4554 O   0  0  0  0  0  0  0  0  0  0  0  0
   -3.2972    2.3775   -4.0097 O   0  0  0  0  0  0  0  0  0  0  0  0
    0.4353    2.5947    3.2729 O   0  0  0  0  0  0  0  0  0  0  0  0
    0.8002    3.5109    5.7030 O   0  0  0  0  0  0  0  0  0  0  0  0
   -3.6376    2.5313    4.0391 O   0  0  0  0  0  0  0  0  0  0  0  0
   -1.6070    2.0336   -0.8416 N   0  0  0  0  0  0  0  0  0  0  0  0
   -1.6123    2.0226    2.5125 N   0  0  0  0  0  0  0  0  0  0  0  0
   -2.1447    1.0749    0.1376 C   0  0  1  0  0  0  0  0  0  0  0  0
   -3.9654    2.7060   -1.0454 C   0  0  0  0  0  0  0  0  0  0  0  0
   -2.5566    2.7581   -1.6963 C   0  0  2  0  0  0  0  0  0  0  0  0
   -1.1053    1.5965    1.1715 C   0  0  1  0  0  0  0  0  0  0  0  0
   -0.8667    2.7031    0.1000 C   0  0  0  0  0  0  0  0  0  0  0  0
   -5.1099    2.2128   -1.9409 C   0  0  0  0  0  0  0  0  0  0  0  0
   -4.3451    4.0915   -0.4964 C   0  0  0  0  0  0  0  0  0  0  0  0
   -2.4434    2.2505   -3.1450 C   0  0  0  0  0  0  0  0  0  0  0  0
   -0.7698    2.5269    3.4964 C   0  0  0  0  0  0  0  0  0  0  0  0
   -1.3851    2.9463    4.8295 C   0  0  0  0  0  0  0  0  0  0  0  0
   -0.5590    3.4168    5.8931 C   0  0  0  0  0  0  0  0  0  0  0  0
   -2.7857    2.9045    5.0579 C   0  0  0  0  0  0  0  0  0  0  0  0
   -1.1385    3.8002    7.1193 C   0  0  0  0  0  0  0  0  0  0  0  0
   -3.3128    3.2381    6.3185 C   0  0  0  0  0  0  0  0  0  0  0  0
   -2.5016    3.7061    7.3334 C   0  0  0  0  0  0  0  0  0  0  0  0
    1.5911    3.9827    6.7930 C   0  0  0  0  0  0  0  0  0  0  0  0
   -4.9561    3.0828    4.1319 C   0  0  0  0  0  0  0  0  0  0  0  0
  1 11  1  0  0  0  0
  2 14  2  0  0  0  0
  3 17  1  0  0  0  0
  4 17  2  0  0  0  0
  5 18  2  0  0  0  0
  6 20  1  0  0  0  0
  6 25  1  0  0  0  0
  7 21  1  0  0  0  0
  7 26  1  0  0  0  0
  8 10  1  0  0  0  0
  8 12  1  0  0  0  0
  8 14  1  0  0  0  0
  9 18  1  0  0  0  0
 10  1  1  1  0  0  0
 10 13  1  0  0  0  0
 11 12  1  0  0  0  0
 11 15  1  0  0  0  0
 11 16  1  0  0  0  0
 12 17  1  6  0  0  0
 13 14  1  0  0  0  0
 13  9  1  1  0  0  0
 18 19  1  0  0  0  0
 19 20  2  0  0  0  0
 19 21  1  0  0  0  0
 20 22  1  0  0  0  0
 21 23  2  0  0  0  0
 22 24  2  0  0  0  0
 23 24  1  0  0  0  0
M  END
