1233
 OpenBabel10141417523D

 20 20  0  0  0  0  0  0  0  0999 V2000
    5.8860    2.7843    0.4793 Cl  0  0  0  0  0  0  0  0  0  0  0  0
    3.5035   -2.3039    2.2985 O   0  0  0  0  0  0  0  0  0  0  0  0
    6.3075   -2.3162   -0.7725 O   0  0  0  0  0  0  0  0  0  0  0  0
    7.0235   -6.9146    0.4439 N   0  0  0  0  0  0  0  0  0  0  0  0
    5.0381   -3.5993    0.6432 N   0  0  0  0  0  0  0  0  0  0  0  0
    3.9559    2.4881    2.8200 N   0  0  0  0  0  0  0  0  0  0  0  0
    6.6458   -5.5342    0.8645 C   0  0  0  0  0  0  0  0  0  0  0  0
    7.4396   -6.9282   -0.9720 C   0  0  0  0  0  0  0  0  0  0  0  0
    8.0399   -7.5078    1.3418 C   0  0  0  0  0  0  0  0  0  0  0  0
    5.4142   -4.9222    0.1399 C   0  0  0  0  0  0  0  0  0  0  0  0
    7.8943   -8.2827   -1.5155 C   0  0  0  0  0  0  0  0  0  0  0  0
    9.3686   -6.7619    1.4602 C   0  0  0  0  0  0  0  0  0  0  0  0
    5.4972   -2.3921    0.1614 C   0  0  0  0  0  0  0  0  0  0  0  0
    4.9879   -1.1279    0.8321 C   0  0  0  0  0  0  0  0  0  0  0  0
    4.0565   -1.1116    1.8972 C   0  0  0  0  0  0  0  0  0  0  0  0
    5.5213    0.1037    0.3984 C   0  0  0  0  0  0  0  0  0  0  0  0
    3.7258    0.1103    2.5142 C   0  0  0  0  0  0  0  0  0  0  0  0
    4.2312    1.3317    2.0671 C   0  0  0  0  0  0  0  0  0  0  0  0
    5.1660    1.3072    1.0237 C   0  0  0  0  0  0  0  0  0  0  0  0
    2.5372   -2.2508    3.3454 C   0  0  0  0  0  0  0  0  0  0  0  0
  1 19  1  0  0  0  0
  2 15  1  0  0  0  0
  2 20  1  0  0  0  0
  3 13  2  0  0  0  0
  4  7  1  0  0  0  0
  4  8  1  0  0  0  0
  4  9  1  0  0  0  0
  5 10  1  0  0  0  0
  5 13  1  0  0  0  0
  6 18  1  0  0  0  0
  7 10  1  0  0  0  0
  8 11  1  0  0  0  0
  9 12  1  0  0  0  0
 13 14  1  0  0  0  0
 14 15  1  0  0  0  0
 14 16  2  0  0  0  0
 15 17  2  0  0  0  0
 16 19  1  0  0  0  0
 17 18  1  0  0  0  0
 18 19  2  0  0  0  0
M  END
