524
 OpenBabel10141417523D

 24 26  0  0  1  0  0  0  0  0999 V2000
    0.9941    0.2485    0.6532 Cl  0  0  0  0  0  0  0  0  0  0  0  0
    2.6036   -2.5234    0.2240 S   0  0  0  0  0  0  0  0  0  0  0  0
    7.3657   -0.6010   -1.0746 O   0  0  0  0  0  0  0  0  0  0  0  0
    2.1317   -2.7260    1.5712 O   0  0  0  0  0  0  0  0  0  0  0  0
    1.7707   -2.6767   -0.9468 O   0  0  0  0  0  0  0  0  0  0  0  0
    7.4139    1.7127   -0.6933 N   0  0  0  0  0  0  0  0  0  0  0  0
    5.3641    2.7640   -0.0697 N   0  0  0  0  0  0  0  0  0  0  0  0
    3.8315   -3.6578    0.0328 N   0  0  0  0  0  0  0  0  0  0  0  0
    6.8119    2.7294    0.1692 C   0  0  3  0  0  0  0  0  0  0  0  0
    4.7282    1.5244    0.0367 C   0  0  0  0  0  0  0  0  0  0  0  0
    5.4128    0.3472   -0.2571 C   0  0  0  0  0  0  0  0  0  0  0  0
    6.8188    0.4391   -0.7122 C   0  0  0  0  0  0  0  0  0  0  0  0
    8.8142    1.7641   -1.0047 C   0  0  0  0  0  0  0  0  0  0  0  0
    7.3071    4.1668   -0.0535 C   0  0  0  0  0  0  0  0  0  0  0  0
    4.7760   -0.8972   -0.1766 C   0  0  0  0  0  0  0  0  0  0  0  0
    3.3532    1.4506    0.2889 C   0  0  0  0  0  0  0  0  0  0  0  0
    3.4139   -0.9624    0.1346 C   0  0  0  0  0  0  0  0  0  0  0  0
    9.2895    1.4430   -2.2959 C   0  0  0  0  0  0  0  0  0  0  0  0
    2.6926    0.2139    0.3455 C   0  0  0  0  0  0  0  0  0  0  0  0
    9.7423    2.1027   -0.0051 C   0  0  0  0  0  0  0  0  0  0  0  0
   10.6756    1.4614   -2.5419 C   0  0  0  0  0  0  0  0  0  0  0  0
    8.3889    1.0459   -3.4355 C   0  0  0  0  0  0  0  0  0  0  0  0
   11.1125    2.1322   -0.2726 C   0  0  0  0  0  0  0  0  0  0  0  0
   11.5792    1.8110   -1.5409 C   0  0  0  0  0  0  0  0  0  0  0  0
  1 19  1  0  0  0  0
  2  4  2  0  0  0  0
  2  5  2  0  0  0  0
  2  8  1  0  0  0  0
  2 17  1  0  0  0  0
  3 12  2  0  0  0  0
  6  9  1  0  0  0  0
  6 12  1  0  0  0  0
  6 13  1  0  0  0  0
  7  9  1  0  0  0  0
  7 10  1  0  0  0  0
  9 14  1  0  0  0  0
 10 11  1  0  0  0  0
 10 16  2  0  0  0  0
 11 12  1  0  0  0  0
 11 15  2  0  0  0  0
 13 18  1  0  0  0  0
 13 20  2  0  0  0  0
 15 17  1  0  0  0  0
 16 19  1  0  0  0  0
 17 19  2  0  0  0  0
 18 21  2  0  0  0  0
 18 22  1  0  0  0  0
 20 23  1  0  0  0  0
 21 24  1  0  0  0  0
 23 24  2  0  0  0  0
M  END
