1336
 OpenBabel10141417503D

 48 54  0  0  1  0  0  0  0  0999 V2000
    2.2905   -4.4823    3.1805 O   0  0  0  0  0  0  0  0  0  0  0  0
    8.6258   -1.7359    3.2283 O   0  0  0  0  0  0  0  0  0  0  0  0
    1.6496   -6.9867    2.7382 O   0  0  0  0  0  0  0  0  0  0  0  0
    1.2225   -8.6930    5.2240 O   0  0  0  0  0  0  0  0  0  0  0  0
   10.0079   -4.1405    2.7107 O   0  0  0  0  0  0  0  0  0  0  0  0
    9.9647   -1.1208    5.4280 O   0  0  0  0  0  0  0  0  0  0  0  0
    3.3980   -2.7024    6.5463 N   0  3  0  0  0  0  0  0  0  0  0  0
    7.2673   -1.7370   -2.6488 N   0  3  0  0  0  0  0  0  0  0  0  0
    3.9607   -3.7451    5.5196 C   0  0  1  0  0  0  0  0  0  0  0  0
    6.6234   -1.7799   -1.2132 C   0  0  2  0  0  0  0  0  0  0  0  0
    2.4433   -3.3644    7.5886 C   0  0  0  0  0  0  0  0  0  0  0  0
    7.7170   -3.1482   -3.0563 C   0  0  0  0  0  0  0  0  0  0  0  0
    3.0236   -4.9293    5.3781 C   0  0  0  0  0  0  0  0  0  0  0  0
    2.7561   -4.8533    7.8445 C   0  0  0  0  0  0  0  0  0  0  0  0
    7.5996   -2.3567   -0.2150 C   0  0  0  0  0  0  0  0  0  0  0  0
    5.3477   -4.3934    5.8649 C   0  0  0  0  0  0  0  0  0  0  0  0
    2.6570   -5.6149    6.5430 C   0  0  0  0  0  0  0  0  0  0  0  0
    8.6217   -3.8266   -2.0199 C   0  0  0  0  0  0  0  0  0  0  0  0
    2.5763   -1.6805    5.7326 C   0  0  0  0  0  0  0  0  0  0  0  0
    4.4664   -1.9025    7.2727 C   0  0  0  0  0  0  0  0  0  0  0  0
    5.2765   -2.5709   -1.2237 C   0  0  0  0  0  0  0  0  0  0  0  0
    8.4427   -3.4132   -0.5792 C   0  0  0  0  0  0  0  0  0  0  0  0
    8.4740   -0.7802   -2.6550 C   0  0  0  0  0  0  0  0  0  0  0  0
    6.2841   -1.2015   -3.6902 C   0  0  0  0  0  0  0  0  0  0  0  0
    2.6104   -5.4277    4.1429 C   0  0  0  0  0  0  0  0  0  0  0  0
    6.5945   -3.5633    5.7294 C   0  0  0  0  0  0  0  0  0  0  0  0
    7.6633   -1.8435    1.0900 C   0  0  0  0  0  0  0  0  0  0  0  0
    2.1453   -6.9150    6.4411 C   0  0  0  0  0  0  0  0  0  0  0  0
    4.6522   -3.0078    0.0865 C   0  0  0  0  0  0  0  0  0  0  0  0
    9.2371   -4.0256    0.4026 C   0  0  0  0  0  0  0  0  0  0  0  0
    2.0531   -6.7221    4.0172 C   0  0  0  0  0  0  0  0  0  0  0  0
    8.4886   -2.4355    2.0505 C   0  0  0  0  0  0  0  0  0  0  0  0
    1.8973   -7.4982    5.1794 C   0  0  0  0  0  0  0  0  0  0  0  0
    9.2451   -3.5696    1.7281 C   0  0  0  0  0  0  0  0  0  0  0  0
    7.0129   -3.0613    4.4902 C   0  0  0  0  0  0  0  0  0  0  0  0
    7.3844   -3.3321    6.8644 C   0  0  0  0  0  0  0  0  0  0  0  0
    5.0221   -4.2105    0.7090 C   0  0  0  0  0  0  0  0  0  0  0  0
    3.5659   -2.2871    0.6122 C   0  0  0  0  0  0  0  0  0  0  0  0
    3.1838   -4.0435    2.2515 C   0  0  0  0  0  0  0  0  0  0  0  0
    8.1825   -2.2966    4.4065 C   0  0  0  0  0  0  0  0  0  0  0  0
    4.3089   -4.7398    1.7912 C   0  0  0  0  0  0  0  0  0  0  0  0
    2.8464   -2.8226    1.6737 C   0  0  0  0  0  0  0  0  0  0  0  0
    8.5145   -2.5236    6.7933 C   0  0  0  0  0  0  0  0  0  0  0  0
    8.9126   -1.9884    5.5684 C   0  0  0  0  0  0  0  0  0  0  0  0
    1.3290   -8.3076    2.3530 C   0  0  0  0  0  0  0  0  0  0  0  0
    2.0009   -9.8464    4.8944 C   0  0  0  0  0  0  0  0  0  0  0  0
   10.3904   -5.4984    2.4907 C   0  0  0  0  0  0  0  0  0  0  0  0
   10.9998   -1.2286    6.4004 C   0  0  0  0  0  0  0  0  0  0  0  0
  1 25  1  0  0  0  0
  1 39  1  0  0  0  0
  2 32  1  0  0  0  0
  2 40  1  0  0  0  0
  3 31  1  0  0  0  0
  3 45  1  0  0  0  0
  4 33  1  0  0  0  0
  4 46  1  0  0  0  0
  5 34  1  0  0  0  0
  5 47  1  0  0  0  0
  6 44  1  0  0  0  0
  6 48  1  0  0  0  0
  7 11  1  0  0  0  0
  7 19  1  0  0  0  0
  7 20  1  0  0  0  0
  8 12  1  0  0  0  0
  8 23  1  0  0  0  0
  8 24  1  0  0  0  0
  9  7  1  6  0  0  0
  9 13  1  0  0  0  0
  9 16  1  0  0  0  0
 10  8  1  6  0  0  0
 10 15  1  0  0  0  0
 10 21  1  0  0  0  0
 11 14  1  0  0  0  0
 12 18  1  0  0  0  0
 13 17  1  0  0  0  0
 13 25  2  0  0  0  0
 14 17  1  0  0  0  0
 15 22  1  0  0  0  0
 15 27  2  0  0  0  0
 16 26  1  0  0  0  0
 17 28  2  0  0  0  0
 18 22  1  0  0  0  0
 21 29  1  0  0  0  0
 22 30  2  0  0  0  0
 25 31  1  0  0  0  0
 26 35  2  0  0  0  0
 26 36  1  0  0  0  0
 27 32  1  0  0  0  0
 28 33  1  0  0  0  0
 29 37  2  0  0  0  0
 29 38  1  0  0  0  0
 30 34  1  0  0  0  0
 31 33  2  0  0  0  0
 32 34  2  0  0  0  0
 35 40  1  0  0  0  0
 36 43  2  0  0  0  0
 37 41  1  0  0  0  0
 38 42  2  0  0  0  0
 39 41  2  0  0  0  0
 39 42  1  0  0  0  0
 40 44  2  0  0  0  0
 43 44  1  0  0  0  0
M  CHG  2   7   1   8   1
M  END
