916
 OpenBabel10141417493D

 12 12  0  0  0  0  0  0  0  0999 V2000
    2.9680   -0.4833    3.0619 O   0  0  0  0  0  0  0  0  0  0  0  0
    4.0587   -4.1330    0.8215 O   0  5  0  0  0  0  0  0  0  0  0  0
    6.1883   -4.6690    0.8940 O   0  0  0  0  0  0  0  0  0  0  0  0
    4.7650   -1.4023    0.9297 N   0  0  0  0  0  0  0  0  0  0  0  0
    6.8427   -0.5940    1.0659 N   0  0  0  0  0  0  0  0  0  0  0  0
    5.2570   -3.8507    0.8772 N   0  3  0  0  0  0  0  0  0  0  0  0
    3.3124   -1.3844    0.8432 C   0  0  0  0  0  0  0  0  0  0  0  0
    5.5644   -0.2692    1.0179 C   0  0  0  0  0  0  0  0  0  0  0  0
    5.6221   -2.4771    0.9349 C   0  0  0  0  0  0  0  0  0  0  0  0
    2.6344   -1.5662    2.1996 C   0  0  0  0  0  0  0  0  0  0  0  0
    6.8882   -1.9592    1.0207 C   0  0  0  0  0  0  0  0  0  0  0  0
    5.0479    1.1263    1.0463 C   0  0  0  0  0  0  0  0  0  0  0  0
  1 10  1  0  0  0  0
  2  6  1  0  0  0  0
  3  6  2  0  0  0  0
  4  7  1  0  0  0  0
  4  8  1  0  0  0  0
  4  9  1  0  0  0  0
  5  8  2  0  0  0  0
  5 11  1  0  0  0  0
  6  9  1  0  0  0  0
  7 10  1  0  0  0  0
  8 12  1  0  0  0  0
  9 11  2  0  0  0  0
M  CHG  2   2  -1   6   1
M  END
