765
 OpenBabel10141417483D

 14 14  0  0  1  0  0  0  0  0999 V2000
    3.2860    1.8828    2.8661 O   0  0  0  0  0  0  0  0  0  0  0  0
    1.8216    2.4474    1.2933 O   0  0  0  0  0  0  0  0  0  0  0  0
   -3.0735   -1.1798    3.4348 O   0  0  0  0  0  0  0  0  0  0  0  0
    4.3556    0.1295    0.8979 N   0  0  0  0  0  0  0  0  0  0  0  0
    2.8878    0.2108    1.1627 C   0  0  2  0  0  0  0  0  0  0  0  0
    2.4608   -0.8931    2.1697 C   0  0  0  0  0  0  0  0  0  0  0  0
    0.9839   -0.9623    2.5129 C   0  0  0  0  0  0  0  0  0  0  0  0
    2.1933    0.0537   -0.1938 C   0  0  0  0  0  0  0  0  0  0  0  0
    2.5812    1.6086    1.7401 C   0  0  0  0  0  0  0  0  0  0  0  0
    0.4615   -0.2152    3.5803 C   0  0  0  0  0  0  0  0  0  0  0  0
    0.1124   -1.7800    1.7764 C   0  0  0  0  0  0  0  0  0  0  0  0
   -0.8991   -0.2744    3.8978 C   0  0  0  0  0  0  0  0  0  0  0  0
   -1.2477   -1.8395    2.0938 C   0  0  0  0  0  0  0  0  0  0  0  0
   -1.7428   -1.0882    3.1515 C   0  0  0  0  0  0  0  0  0  0  0  0
  1  9  1  0  0  0  0
  2  9  2  0  0  0  0
  3 14  1  0  0  0  0
  5  4  1  6  0  0  0
  5  6  1  0  0  0  0
  5  8  1  0  0  0  0
  5  9  1  0  0  0  0
  6  7  1  0  0  0  0
  7 10  2  0  0  0  0
  7 11  1  0  0  0  0
 10 12  1  0  0  0  0
 11 13  2  0  0  0  0
 12 14  2  0  0  0  0
 13 14  1  0  0  0  0
M  END
