379
 OpenBabel10141417483D

 13 13  0  0  1  0  0  0  0  0999 V2000
    1.4274   -0.2831   -0.6453 O   0  0  0  0  0  0  0  0  0  0  0  0
   -1.1289   -1.6766   -0.9521 N   0  0  0  0  0  0  0  0  0  0  0  0
   -0.7614   -0.9438    0.2687 C   0  0  3  0  0  0  0  0  0  0  0  0
    0.7713   -0.9220    0.4805 C   0  0  0  0  0  0  0  0  0  0  0  0
    2.7838   -0.2110   -0.4069 C   0  0  0  0  0  0  0  0  0  0  0  0
    3.3498    1.0260   -0.0414 C   0  0  0  0  0  0  0  0  0  0  0  0
    3.5987   -1.3421   -0.5507 C   0  0  0  0  0  0  0  0  0  0  0  0
   -1.4833   -1.6063    1.4432 C   0  0  0  0  0  0  0  0  0  0  0  0
    4.6888    1.0548    0.3790 C   0  0  0  0  0  0  0  0  0  0  0  0
    4.9354   -1.2841   -0.1251 C   0  0  0  0  0  0  0  0  0  0  0  0
    5.4657   -0.0933    0.3766 C   0  0  0  0  0  0  0  0  0  0  0  0
    2.6277    2.3270   -0.2168 C   0  0  0  0  0  0  0  0  0  0  0  0
    3.1259   -2.6130   -1.2067 C   0  0  0  0  0  0  0  0  0  0  0  0
  1  4  1  0  0  0  0
  1  5  1  0  0  0  0
  2  3  1  0  0  0  0
  3  4  1  0  0  0  0
  3  8  1  0  0  0  0
  5  6  2  0  0  0  0
  5  7  1  0  0  0  0
  6  9  1  0  0  0  0
  6 12  1  0  0  0  0
  7 10  2  0  0  0  0
  7 13  1  0  0  0  0
  9 11  2  0  0  0  0
 10 11  1  0  0  0  0
M  END
