948
 OpenBabel10141417493D

 36 39  0  0  1  0  0  0  0  0999 V2000
   -0.3732   -5.7450    6.4183 S   0  0  0  0  0  0  0  0  0  0  0  0
    0.9089    1.6142   -2.2205 S   0  0  0  0  0  0  0  0  0  0  0  0
    1.6513   -5.8595    2.5910 O   0  0  0  0  0  0  0  0  0  0  0  0
    1.6467   -9.1788    5.5842 O   0  0  0  0  0  0  0  0  0  0  0  0
   -0.4087   -9.9049    5.0172 O   0  0  0  0  0  0  0  0  0  0  0  0
    2.2253   -2.4043    3.2435 O   0  0  0  0  0  0  0  0  0  0  0  0
   -2.3249   -0.7023    2.3629 O   0  0  0  0  0  0  0  0  0  0  0  0
    1.1810   -0.2152    0.2269 O   0  0  0  0  0  0  0  0  0  0  0  0
    0.4815    1.6127   -3.6055 O   0  0  0  0  0  0  0  0  0  0  0  0
    1.0894    2.8659   -1.5159 O   0  0  0  0  0  0  0  0  0  0  0  0
    1.3817   -6.7698    4.7188 N   0  0  0  0  0  0  0  0  0  0  0  0
    0.9227   -3.5345    4.7524 N   0  0  0  0  0  0  0  0  0  0  0  0
   -0.0639   -0.9677    2.4037 N   0  0  0  0  0  0  0  0  0  0  0  0
   -1.1078   -0.0458    0.5476 N   0  0  0  0  0  0  0  0  0  0  0  0
   -0.2155    0.7236   -1.3753 N   0  0  0  0  0  0  0  0  0  0  0  0
    1.3637   -5.8286    5.8525 C   0  0  1  0  0  0  0  0  0  0  0  0
   -1.0354   -6.8161    5.0586 C   0  0  0  0  0  0  0  0  0  0  0  0
    0.1784   -7.5925    4.4872 C   0  0  2  0  0  0  0  0  0  0  0  0
    1.8384   -4.7029    4.8910 C   0  0  1  0  0  0  0  0  0  0  0  0
    1.7042   -5.8018    3.7968 C   0  0  0  0  0  0  0  0  0  0  0  0
   -2.1779   -7.6641    5.6283 C   0  0  0  0  0  0  0  0  0  0  0  0
   -1.6398   -5.8770    3.9969 C   0  0  0  0  0  0  0  0  0  0  0  0
    0.4090   -8.9977    5.0598 C   0  0  0  0  0  0  0  0  0  0  0  0
    1.1759   -2.4974    3.8678 C   0  0  0  0  0  0  0  0  0  0  0  0
    0.0137   -1.4756    3.7588 C   0  0  1  0  0  0  0  0  0  0  0  0
    0.1533   -0.3652    4.7875 C   0  0  0  0  0  0  0  0  0  0  0  0
   -1.2349   -0.5825    1.8091 C   0  0  0  0  0  0  0  0  0  0  0  0
   -2.2352    0.4289   -0.2345 C   0  0  0  0  0  0  0  0  0  0  0  0
   -1.6230    1.1770   -1.4254 C   0  0  0  0  0  0  0  0  0  0  0  0
    0.0706    0.1119   -0.1481 C   0  0  0  0  0  0  0  0  0  0  0  0
    0.9131    0.7932    4.5520 C   0  0  0  0  0  0  0  0  0  0  0  0
   -0.4933   -0.4996    6.0275 C   0  0  0  0  0  0  0  0  0  0  0  0
    0.9844    1.8048    5.5146 C   0  0  0  0  0  0  0  0  0  0  0  0
   -0.4068    0.5041    6.9928 C   0  0  0  0  0  0  0  0  0  0  0  0
    2.4157    0.6589   -2.1153 C   0  0  0  0  0  0  0  0  0  0  0  0
    0.3233    1.6603    6.7326 C   0  0  0  0  0  0  0  0  0  0  0  0
  1 17  1  0  0  0  0
  2  9  2  0  0  0  0
  2 10  2  0  0  0  0
  2 15  1  0  0  0  0
  2 35  1  0  0  0  0
  3 20  2  0  0  0  0
  4 23  1  0  0  0  0
  5 23  2  0  0  0  0
  6 24  2  0  0  0  0
  7 27  2  0  0  0  0
  8 30  2  0  0  0  0
 11 16  1  0  0  0  0
 11 18  1  0  0  0  0
 11 20  1  0  0  0  0
 12 24  1  0  0  0  0
 13 27  1  0  0  0  0
 14 27  1  0  0  0  0
 14 28  1  0  0  0  0
 14 30  1  0  0  0  0
 15 29  1  0  0  0  0
 15 30  1  0  0  0  0
 16  1  1  6  0  0  0
 16 19  1  0  0  0  0
 17 18  1  0  0  0  0
 17 21  1  0  0  0  0
 17 22  1  0  0  0  0
 18 23  1  1  0  0  0
 19 20  1  0  0  0  0
 19 12  1  6  0  0  0
 25 26  1  1  0  0  0
 25 24  1  0  0  0  0
 25 13  1  0  0  0  0
 26 31  2  0  0  0  0
 26 32  1  0  0  0  0
 28 29  1  0  0  0  0
 31 33  1  0  0  0  0
 32 34  2  0  0  0  0
 33 36  2  0  0  0  0
 34 36  1  0  0  0  0
M  END
