
 OpenBabel10141417483D

 20 23  0  0  1  0  0  0  0  0999 V2000
    0.5467    1.9305    0.0839 N   0  0  0  0  0  0  0  0  0  0  0  0
   -0.8571    4.5393   -0.1630 N   0  0  0  0  0  0  0  0  0  0  0  0
   -0.7097    1.9448   -0.7084 C   0  0  3  0  0  0  0  0  0  0  0  0
   -1.3632    3.3764   -0.9196 C   0  0  0  0  0  0  0  0  0  0  0  0
    0.8936    3.1244    0.8682 C   0  0  0  0  0  0  0  0  0  0  0  0
   -1.6630    0.8661   -0.1791 C   0  0  0  0  0  0  0  0  0  0  0  0
   -0.2507    4.1116    1.0933 C   0  0  0  0  0  0  0  0  0  0  0  0
    1.4739    0.8727    0.0490 C   0  0  0  0  0  0  0  0  0  0  0  0
   -1.3243   -0.4852   -0.4100 C   0  0  0  0  0  0  0  0  0  0  0  0
   -0.0662   -0.8219   -1.1692 C   0  0  0  0  0  0  0  0  0  0  0  0
    1.2167   -0.4166   -0.4741 C   0  0  0  0  0  0  0  0  0  0  0  0
   -1.8966    5.5362    0.0779 C   0  0  0  0  0  0  0  0  0  0  0  0
   -2.8385    1.1355    0.5417 C   0  0  0  0  0  0  0  0  0  0  0  0
    2.7699    1.0567    0.6032 C   0  0  0  0  0  0  0  0  0  0  0  0
   -2.1493   -1.5202    0.0632 C   0  0  0  0  0  0  0  0  0  0  0  0
    2.2042   -1.4371   -0.3930 C   0  0  0  0  0  0  0  0  0  0  0  0
   -3.6702    0.0982    0.9803 C   0  0  0  0  0  0  0  0  0  0  0  0
   -3.3240   -1.2277    0.7466 C   0  0  0  0  0  0  0  0  0  0  0  0
    3.7312    0.0409    0.6825 C   0  0  0  0  0  0  0  0  0  0  0  0
    3.4451   -1.2108    0.1935 C   0  0  0  0  0  0  0  0  0  0  0  0
  1  3  1  0  0  0  0
  1  5  1  0  0  0  0
  1  8  1  0  0  0  0
  2  4  1  0  0  0  0
  2  7  1  0  0  0  0
  2 12  1  0  0  0  0
  3  4  1  0  0  0  0
  3  6  1  0  0  0  0
  5  7  1  0  0  0  0
  6  9  1  0  0  0  0
  6 13  2  0  0  0  0
  8 11  1  0  0  0  0
  8 14  2  0  0  0  0
  9 10  1  0  0  0  0
  9 15  2  0  0  0  0
 10 11  1  0  0  0  0
 11 16  2  0  0  0  0
 13 17  1  0  0  0  0
 14 19  1  0  0  0  0
 15 18  1  0  0  0  0
 16 20  1  0  0  0  0
 17 18  2  0  0  0  0
 19 20  2  0  0  0  0
M  END
