211
 OpenBabel10141417483D

 18 18  0  0  1  0  0  0  0  0999 V2000
    2.6912   -0.1132   -0.0168 O   0  0  0  0  0  0  0  0  0  0  0  0
    0.9233   -3.0108    2.5185 O   0  0  0  0  0  0  0  0  0  0  0  0
    6.0681   -1.1814    3.4578 O   0  0  0  0  0  0  0  0  0  0  0  0
   -1.8603    0.4296    1.5766 O   0  0  0  0  0  0  0  0  0  0  0  0
    0.1199    1.0569    0.6010 N   0  0  0  0  0  0  0  0  0  0  0  0
   -3.4470    1.6657   -0.2826 N   0  0  0  0  0  0  0  0  0  0  0  0
    1.8555   -0.7163    0.9990 C   0  0  3  0  0  0  0  0  0  0  0  0
    2.6974   -1.4683    2.0334 C   0  0  0  0  0  0  0  0  0  0  0  0
    0.9931    0.4214    1.5918 C   0  0  0  0  0  0  0  0  0  0  0  0
    2.2206   -2.6041    2.7235 C   0  0  0  0  0  0  0  0  0  0  0  0
    4.0042   -1.0262    2.3411 C   0  0  0  0  0  0  0  0  0  0  0  0
    4.8177   -1.7002    3.2619 C   0  0  0  0  0  0  0  0  0  0  0  0
    3.0700   -3.3055    3.5959 C   0  0  0  0  0  0  0  0  0  0  0  0
    4.3534   -2.8552    3.8716 C   0  0  0  0  0  0  0  0  0  0  0  0
   -1.2500    1.0291    0.6781 C   0  0  0  0  0  0  0  0  0  0  0  0
   -1.9824    1.7969   -0.4281 C   0  0  0  0  0  0  0  0  0  0  0  0
    0.3608   -3.7348    3.6227 C   0  0  0  0  0  0  0  0  0  0  0  0
    6.6117   -1.4059    4.7571 C   0  0  0  0  0  0  0  0  0  0  0  0
  1  7  1  0  0  0  0
  2 10  1  0  0  0  0
  2 17  1  0  0  0  0
  3 12  1  0  0  0  0
  3 18  1  0  0  0  0
  4 15  2  0  0  0  0
  5  9  1  0  0  0  0
  5 15  1  0  0  0  0
  6 16  1  0  0  0  0
  7  8  1  0  0  0  0
  7  9  1  0  0  0  0
  8 10  2  0  0  0  0
  8 11  1  0  0  0  0
 10 13  1  0  0  0  0
 11 12  2  0  0  0  0
 12 14  1  0  0  0  0
 13 14  2  0  0  0  0
 15 16  1  0  0  0  0
M  END
