834
 OpenBabel10141417493D

 32 36  0  0  1  0  0  0  0  0999 V2000
    1.0340   -0.4897   -0.0145 O   0  0  0  0  0  0  0  0  0  0  0  0
    0.0249   -0.2128   -7.9831 O   0  0  0  0  0  0  0  0  0  0  0  0
   -4.2615    5.6970   -2.5594 N   0  0  0  0  0  0  0  0  0  0  0  0
    2.3636    1.4916   -0.6988 C   0  0  1  0  0  0  0  0  0  0  0  0
    3.2895    1.3090   -1.9601 C   0  0  2  0  0  0  0  0  0  0  0  0
    3.0590    2.3075   -3.1320 C   0  0  1  0  0  0  0  0  0  0  0  0
    2.3550    0.0747   -0.0142 C   0  0  2  0  0  0  0  0  0  0  0  0
    0.9087    1.8940   -1.1113 C   0  0  0  0  0  0  0  0  0  0  0  0
    3.0895   -0.1699   -2.3109 C   0  0  0  0  0  0  0  0  0  0  0  0
    3.1726   -0.8364   -0.9500 C   0  0  0  0  0  0  0  0  0  0  0  0
    0.8346    2.9542   -2.2125 C   0  0  1  0  0  0  0  0  0  0  0  0
    1.5614    2.4058   -3.4425 C   0  0  0  0  0  0  0  0  0  0  0  0
    3.9653    1.9824   -4.3387 C   0  0  0  0  0  0  0  0  0  0  0  0
    2.9674    2.5898    0.1984 C   0  0  0  0  0  0  0  0  0  0  0  0
    1.0667    1.9821   -4.6323 C   0  0  0  0  0  0  0  0  0  0  0  0
    3.3287    2.4118   -5.6484 C   0  0  0  0  0  0  0  0  0  0  0  0
   -0.5332    3.5960   -2.3904 C   0  0  0  0  0  0  0  0  0  0  0  0
    1.9775    1.7566   -5.7620 C   0  0  0  0  0  0  0  0  0  0  0  0
    2.8364   -0.0882    1.3375 C   0  0  0  0  0  0  0  0  0  0  0  0
   -0.3855    1.7004   -4.9455 C   0  0  0  0  0  0  0  0  0  0  0  0
    1.6378    1.0592   -6.8575 C   0  0  0  0  0  0  0  0  0  0  0  0
   -0.5625    0.4060   -5.7374 C   0  0  0  0  0  0  0  0  0  0  0  0
   -0.6132    4.9019   -2.8853 C   0  0  0  0  0  0  0  0  0  0  0  0
   -1.7266    2.9895   -1.9899 C   0  0  0  0  0  0  0  0  0  0  0  0
    0.3226    0.3937   -6.9529 C   0  0  0  0  0  0  0  0  0  0  0  0
    3.2331   -0.2225    2.4515 C   0  0  0  0  0  0  0  0  0  0  0  0
   -1.8391    5.5832   -2.9434 C   0  0  0  0  0  0  0  0  0  0  0  0
   -2.9491    3.6750   -2.0645 C   0  0  0  0  0  0  0  0  0  0  0  0
   -3.0478    4.9920   -2.5414 C   0  0  0  0  0  0  0  0  0  0  0  0
    3.7144   -0.3854    3.8031 C   0  0  0  0  0  0  0  0  0  0  0  0
   -4.4312    6.7307   -3.5815 C   0  0  0  0  0  0  0  0  0  0  0  0
   -5.4880    4.9778   -2.2142 C   0  0  0  0  0  0  0  0  0  0  0  0
  2 25  2  0  0  0  0
  3 29  1  0  0  0  0
  3 31  1  0  0  0  0
  3 32  1  0  0  0  0
  4  5  1  0  0  0  0
  4  7  1  0  0  0  0
  4  8  1  0  0  0  0
  4 14  1  6  0  0  0
  5  6  1  0  0  0  0
  5  9  1  6  0  0  0
  6 12  1  1  0  0  0
  6 13  1  0  0  0  0
  7  1  1  6  0  0  0
  7 10  1  0  0  0  0
  7 19  1  0  0  0  0
  8 11  1  0  0  0  0
  9 10  1  0  0  0  0
 11 12  1  0  0  0  0
 11 17  1  6  0  0  0
 12 15  2  0  0  0  0
 13 16  1  0  0  0  0
 15 18  1  0  0  0  0
 15 20  1  0  0  0  0
 16 18  1  0  0  0  0
 17 23  2  0  0  0  0
 17 24  1  0  0  0  0
 18 21  2  0  0  0  0
 19 26  3  0  0  0  0
 20 22  1  0  0  0  0
 21 25  1  0  0  0  0
 22 25  1  0  0  0  0
 23 27  1  0  0  0  0
 24 28  2  0  0  0  0
 26 30  1  0  0  0  0
 27 29  2  0  0  0  0
 28 29  1  0  0  0  0
M  END
