419
 OpenBabel10141417493D

 15 15  0  0  1  0  0  0  0  0999 V2000
    0.7890    0.1817    0.2858 O   0  0  0  0  0  0  0  0  0  0  0  0
    2.3293    2.5420    0.2950 O   0  0  0  0  0  0  0  0  0  0  0  0
    4.7729    2.3672    1.7750 O   0  0  0  0  0  0  0  0  0  0  0  0
    0.7925   -2.4327    0.0518 O   0  0  0  0  0  0  0  0  0  0  0  0
    4.3296   -1.2104    0.6847 N   0  0  0  0  0  0  0  0  0  0  0  0
    2.8343   -1.2098    0.6729 C   0  0  1  0  0  0  0  0  0  0  0  0
    2.2167    0.1152    0.1347 C   0  0  2  0  0  0  0  0  0  0  0  0
    2.7815    1.3185    0.9011 C   0  0  1  0  0  0  0  0  0  0  0  0
    4.3087    1.3071    0.9325 C   0  0  2  0  0  0  0  0  0  0  0  0
    4.8023   -0.0452    1.4654 C   0  0  0  0  0  0  0  0  0  0  0  0
    4.9355   -1.2889   -0.6631 C   0  0  0  0  0  0  0  0  0  0  0  0
    2.2226   -2.4584   -0.0116 C   0  0  0  0  0  0  0  0  0  0  0  0
    6.4768   -1.2943   -0.6788 C   0  0  0  0  0  0  0  0  0  0  0  0
    7.0240   -1.4316   -2.1036 C   0  0  0  0  0  0  0  0  0  0  0  0
    8.5462   -1.4371   -2.1281 C   0  0  0  0  0  0  0  0  0  0  0  0
  4 12  1  0  0  0  0
  5  6  1  0  0  0  0
  5 10  1  0  0  0  0
  5 11  1  0  0  0  0
  6  7  1  0  0  0  0
  6 12  1  6  0  0  0
  7  1  1  1  0  0  0
  7  8  1  0  0  0  0
  8  9  1  0  0  0  0
  8  2  1  6  0  0  0
  9  3  1  1  0  0  0
  9 10  1  0  0  0  0
 11 13  1  0  0  0  0
 13 14  1  0  0  0  0
 14 15  1  0  0  0  0
M  END
