491
 OpenBabel10141417553D

 14 14  0  0  1  0  0  0  0  0999 V2000
    0.6608    0.2047    0.3746 O   0  0  0  0  0  0  0  0  0  0  0  0
    2.1819    2.5984    0.4662 O   0  0  0  0  0  0  0  0  0  0  0  0
    4.6687    2.3204    1.8865 O   0  0  0  0  0  0  0  0  0  0  0  0
    0.7059   -2.3863   -0.0805 O   0  0  0  0  0  0  0  0  0  0  0  0
    6.6076   -0.9087   -2.4903 O   0  0  0  0  0  0  0  0  0  0  0  0
    4.2406   -1.1266    0.4328 N   0  0  0  0  0  0  0  0  0  0  0  0
    2.7485   -1.1628    0.5103 C   0  0  1  0  0  0  0  0  0  0  0  0
    2.0776    0.1899    0.1299 C   0  0  2  0  0  0  0  0  0  0  0  0
    2.6652    1.3376    0.9629 C   0  0  1  0  0  0  0  0  0  0  0  0
    4.1934    1.3503    0.9466 C   0  0  2  0  0  0  0  0  0  0  0  0
    4.7339   -0.0404    1.3096 C   0  0  0  0  0  0  0  0  0  0  0  0
    2.1247   -2.3562   -0.2573 C   0  0  0  0  0  0  0  0  0  0  0  0
    4.7484   -1.0041   -0.9527 C   0  0  0  0  0  0  0  0  0  0  0  0
    6.2784   -1.0409   -1.1076 C   0  0  0  0  0  0  0  0  0  0  0  0
  4 12  1  0  0  0  0
  5 14  1  0  0  0  0
  6  7  1  0  0  0  0
  6 11  1  0  0  0  0
  6 13  1  0  0  0  0
  7  8  1  0  0  0  0
  7 12  1  6  0  0  0
  8  1  1  1  0  0  0
  8  9  1  0  0  0  0
  9 10  1  0  0  0  0
  9  2  1  6  0  0  0
 10  3  1  1  0  0  0
 10 11  1  0  0  0  0
 13 14  1  0  0  0  0
M  END
