
 OpenBabel10141417533D

 18 19  0  0  1  0  0  0  0  0999 V2000
    3.3205    2.8620   -1.5709 O   0  0  0  0  0  0  0  0  0  0  0  0
    3.2947    1.0891   -0.0905 N   0  0  0  0  0  0  0  0  0  0  0  0
    7.8478    3.3495   -2.4928 N   0  0  0  0  0  0  0  0  0  0  0  0
    4.6762    1.0467   -2.2950 C   0  0  2  0  0  0  0  0  0  0  0  0
    6.0357    1.7945   -2.5950 C   0  0  2  0  0  0  0  0  0  0  0  0
    6.0316    0.5737   -1.7588 C   0  0  0  0  0  0  0  0  0  0  0  0
    6.5095    3.0642   -1.9699 C   0  0  0  0  0  0  0  0  0  0  0  0
    4.0983    0.2775   -3.5496 C   0  0  0  0  0  0  0  0  0  0  0  0
    3.6882    1.7306   -1.3076 C   0  0  0  0  0  0  0  0  0  0  0  0
    4.3676    0.7027   -4.8722 C   0  0  0  0  0  0  0  0  0  0  0  0
    3.3991   -0.9404   -3.4509 C   0  0  0  0  0  0  0  0  0  0  0  0
    2.4340    1.8732    0.8327 C   0  0  0  0  0  0  0  0  0  0  0  0
    3.2099   -0.3594    0.1170 C   0  0  0  0  0  0  0  0  0  0  0  0
    4.0031   -0.0446   -6.0031 C   0  0  0  0  0  0  0  0  0  0  0  0
    3.0425   -1.7043   -4.5756 C   0  0  0  0  0  0  0  0  0  0  0  0
    3.3460   -1.2566   -5.8538 C   0  0  0  0  0  0  0  0  0  0  0  0
    0.9312    1.6535    0.6378 C   0  0  0  0  0  0  0  0  0  0  0  0
    4.4531   -1.2120   -0.0252 C   0  0  0  0  0  0  0  0  0  0  0  0
  1  9  2  0  0  0  0
  2  9  1  0  0  0  0
  2 12  1  0  0  0  0
  2 13  1  0  0  0  0
  3  7  1  0  0  0  0
  4  5  1  0  0  0  0
  4  6  1  0  0  0  0
  4  9  1  1  0  0  0
  4  8  1  0  0  0  0
  5  6  1  0  0  0  0
  5  7  1  1  0  0  0
  8 10  2  0  0  0  0
  8 11  1  0  0  0  0
 10 14  1  0  0  0  0
 11 15  2  0  0  0  0
 12 17  1  0  0  0  0
 13 18  1  0  0  0  0
 14 16  2  0  0  0  0
 15 16  1  0  0  0  0
M  END
