1055
 OpenBabel10141417513D

 14 14  0  0  1  0  0  0  0  0999 V2000
    2.2856   -0.5335   -0.2789 O   0  0  0  0  0  0  0  0  0  0  0  0
    5.5072    6.0621   -1.7313 O   0  0  0  0  0  0  0  0  0  0  0  0
    4.0871   -1.8051   -0.6175 O   0  0  0  0  0  0  0  0  0  0  0  0
    7.0702    5.3528   -3.9998 O   0  0  0  0  0  0  0  0  0  0  0  0
    5.4240    2.3619   -1.7912 N   0  0  0  0  0  0  0  0  0  0  0  0
    2.7968    1.0410   -2.4290 N   0  0  0  0  0  0  0  0  0  0  0  0
    4.8641    1.2518   -0.9789 C   0  0  0  0  0  0  0  0  0  0  0  0
    3.9425    0.3297   -1.8051 C   0  0  1  0  0  0  0  0  0  0  0  0
    5.2135    3.6953   -1.4461 C   0  0  0  0  0  0  0  0  0  0  0  0
    6.2700    2.1012   -2.8649 C   0  0  0  0  0  0  0  0  0  0  0  0
    3.4658   -0.7876   -0.8853 C   0  0  0  0  0  0  0  0  0  0  0  0
    5.7237    4.7517   -2.1045 C   0  0  0  0  0  0  0  0  0  0  0  0
    6.8402    3.0420   -3.6268 C   0  0  0  0  0  0  0  0  0  0  0  0
    6.5818    4.4668   -3.3049 C   0  0  0  0  0  0  0  0  0  0  0  0
  1 11  1  0  0  0  0
  2 12  1  0  0  0  0
  3 11  2  0  0  0  0
  4 14  2  0  0  0  0
  5  7  1  0  0  0  0
  5  9  1  0  0  0  0
  5 10  1  0  0  0  0
  7  8  1  0  0  0  0
  8  6  1  1  0  0  0
  8 11  1  0  0  0  0
  9 12  2  0  0  0  0
 10 13  2  0  0  0  0
 12 14  1  0  0  0  0
 13 14  1  0  0  0  0
M  END
