
 OpenBabel10141417493D

 15 16  0  0  0  0  0  0  0  0999 V2000
    1.3661   -0.1207   -0.0930 C   0  0  0  0  0  0  0  0  0  0  0  0
    2.6692   -0.2047   -0.6292 N   0  0  0  0  0  0  0  0  0  0  0  0
    0.5589   -1.2516   -0.1018 C   0  0  0  0  0  0  0  0  0  0  0  0
    0.9124    1.0576    0.3863 N   0  0  0  0  0  0  0  0  0  0  0  0
    3.2690    1.1185   -0.8804 C   0  0  0  0  0  0  0  0  0  0  0  0
    3.5392   -1.1061    0.1478 C   0  0  0  0  0  0  0  0  0  0  0  0
   -0.7270   -1.1744    0.4177 C   0  0  0  0  0  0  0  0  0  0  0  0
   -0.3479    1.1549    0.8786 C   0  0  0  0  0  0  0  0  0  0  0  0
    4.5828    0.9505   -1.6440 C   0  0  0  0  0  0  0  0  0  0  0  0
    4.8643   -1.3074   -0.5889 C   0  0  0  0  0  0  0  0  0  0  0  0
   -1.1909    0.0398    0.9301 N   0  3  0  0  0  0  0  0  0  0  0  0
   -1.5611   -2.3199    0.4764 N   0  0  0  0  0  0  0  0  0  0  0  0
   -0.7882    2.3904    1.3657 N   0  0  0  0  0  0  0  0  0  0  0  0
    5.5393    0.0257   -0.8972 C   0  0  0  0  0  0  0  0  0  0  0  0
   -2.3762    0.1105    1.4395 O   0  5  0  0  0  0  0  0  0  0  0  0
  1  2  1  0  0  0  0
  1  3  1  0  0  0  0
  1  4  2  0  0  0  0
  2  5  1  0  0  0  0
  2  6  1  0  0  0  0
  3  7  2  0  0  0  0
  4  8  1  0  0  0  0
  5  9  1  0  0  0  0
  6 10  1  0  0  0  0
  7 11  1  0  0  0  0
  7 12  1  0  0  0  0
  8 13  1  0  0  0  0
  8 11  2  0  0  0  0
  9 14  1  0  0  0  0
 10 14  1  0  0  0  0
 11 15  1  0  0  0  0
M  CHG  2  11   1  15  -1
M  END
