
 OpenBabel10141417503D

 33 36  0  0  1  0  0  0  0  0999 V2000
    9.7227   -3.7933   -4.0476 C   0  0  0  0  0  0  0  0  0  0  0  0
    9.6270   -4.2539   -5.3794 C   0  0  0  0  0  0  0  0  0  0  0  0
    8.6900   -3.7654   -6.2989 C   0  0  0  0  0  0  0  0  0  0  0  0
    7.7801   -2.7941   -5.9109 C   0  0  0  0  0  0  0  0  0  0  0  0
    7.8081   -2.3059   -4.6049 C   0  0  0  0  0  0  0  0  0  0  0  0
    8.7919   -2.7918   -3.6785 C   0  0  0  0  0  0  0  0  0  0  0  0
    8.7918   -2.0992   -2.3384 C   0  0  0  0  0  0  0  0  0  0  0  0
    6.8139   -1.2608   -4.1541 C   0  0  0  0  0  0  0  0  0  0  0  0
    6.5971   -1.1276   -2.6718 C   0  0  0  0  0  0  0  0  0  0  0  0
    7.3552   -2.1053   -1.8283 C   0  0  2  0  0  0  0  0  0  0  0  0
    7.3212   -1.8258   -0.3283 C   0  0  0  0  0  0  0  0  0  0  0  0
    5.8255   -0.1577   -2.1423 C   0  0  0  0  0  0  0  0  0  0  0  0
    5.6529    0.0248   -0.6348 C   0  0  1  0  0  0  0  0  0  0  0  0
    5.9449   -1.2900    0.1204 C   0  0  2  0  0  0  0  0  0  0  0  0
    5.9564   -1.1383    1.6635 C   0  0  1  0  0  0  0  0  0  0  0  0
    6.6425    1.0838   -0.1066 C   0  0  0  0  0  0  0  0  0  0  0  0
    6.6751    1.2968    1.3728 C   0  0  0  0  0  0  0  0  0  0  0  0
    6.4053    0.2342    2.1601 C   0  0  0  0  0  0  0  0  0  0  0  0
   10.6985   -4.3279   -3.2166 N   0  0  0  0  0  0  0  0  0  0  0  0
    4.7553   -1.5657    2.4325 N   0  0  0  0  0  0  0  0  0  0  0  0
    4.3100    0.4399   -0.4145 O   0  0  0  0  0  0  0  0  0  0  0  0
   10.5603   -4.5407   -1.7809 C   0  0  0  0  0  0  0  0  0  0  0  0
   11.9725   -4.7889   -3.7663 C   0  0  0  0  0  0  0  0  0  0  0  0
    4.4496   -2.9905    2.2571 C   0  0  0  0  0  0  0  0  0  0  0  0
    3.5519   -0.7766    2.1516 C   0  0  0  0  0  0  0  0  0  0  0  0
    6.4823    0.3110    3.5495 O   0  0  0  0  0  0  0  0  0  0  0  0
    6.8521   -2.3630   -6.8120 O   0  0  0  0  0  0  0  0  0  0  0  0
    6.2105   -0.5134   -4.9188 O   0  0  0  0  0  0  0  0  0  0  0  0
    5.0919    0.7333   -2.9163 O   0  0  0  0  0  0  0  0  0  0  0  0
    7.4827    1.6380   -0.8220 O   0  0  0  0  0  0  0  0  0  0  0  0
    6.9992    2.6576    1.8851 C   0  0  0  0  0  0  0  0  0  0  0  0
    6.8359    3.6795    1.2045 O   0  0  0  0  0  0  0  0  0  0  0  0
    7.4521    2.7609    3.1541 N   0  0  0  0  0  0  0  0  0  0  0  0
  1  2  2  0  0  0  0
  1  6  1  0  0  0  0
  1 19  1  0  0  0  0
  2  3  1  0  0  0  0
  3  4  2  0  0  0  0
  4  5  1  0  0  0  0
  4 27  1  0  0  0  0
  5  8  1  0  0  0  0
  6  5  2  0  0  0  0
  7  6  1  0  0  0  0
  8  9  1  0  0  0  0
  8 28  2  0  0  0  0
  9 12  2  0  0  0  0
 10  7  1  6  0  0  0
 10  9  1  0  0  0  0
 11 10  1  0  0  0  0
 12 13  1  0  0  0  0
 12 29  1  0  0  0  0
 13 16  1  0  0  0  0
 13 21  1  1  0  0  0
 14 11  1  6  0  0  0
 14 13  1  0  0  0  0
 15 14  1  0  0  0  0
 15 18  1  0  0  0  0
 15 20  1  6  0  0  0
 16 17  1  0  0  0  0
 16 30  2  0  0  0  0
 17 18  2  0  0  0  0
 17 31  1  0  0  0  0
 18 26  1  0  0  0  0
 19 22  1  0  0  0  0
 19 23  1  0  0  0  0
 20 24  1  0  0  0  0
 20 25  1  0  0  0  0
 31 32  2  0  0  0  0
 31 33  1  0  0  0  0
M  END
