
 OpenBabel10141418343D

 28 30  0  0  1  0  0  0  0  0999 V2000
    5.1157   -1.7663    2.8060 C   0  0  0  0  0  0  0  0  0  0  0  0
    5.5307   -2.9343    2.1693 C   0  0  0  0  0  0  0  0  0  0  0  0
    5.1691   -3.1647    0.8468 C   0  0  0  0  0  0  0  0  0  0  0  0
    4.3958   -2.2264    0.1608 C   0  0  0  0  0  0  0  0  0  0  0  0
    3.9698   -1.0388    0.7814 C   0  0  0  0  0  0  0  0  0  0  0  0
    4.3377   -0.8262    2.1202 C   0  0  0  0  0  0  0  0  0  0  0  0
    3.1539    0.0072    0.0370 C   0  0  2  0  0  0  0  0  0  0  0  0
    1.6133   -0.1096    0.2290 C   0  0  0  0  0  0  0  0  0  0  0  0
    1.0496   -1.3354   -0.3744 N   0  0  0  0  0  0  0  0  0  0  0  0
   -0.4133   -1.3889   -0.2105 C   0  0  0  0  0  0  0  0  0  0  0  0
   -0.9396   -2.7520   -0.6954 C   0  0  0  0  0  0  0  0  0  0  0  0
   -2.4429   -2.8732   -0.6151 C   0  0  0  0  0  0  0  0  0  0  0  0
   -3.2664   -2.0140   -1.3545 C   0  0  0  0  0  0  0  0  0  0  0  0
   -4.6586   -2.1102   -1.2745 C   0  0  0  0  0  0  0  0  0  0  0  0
   -5.2574   -3.0685   -0.4602 C   0  0  0  0  0  0  0  0  0  0  0  0
   -4.4371   -3.9378    0.2737 C   0  0  0  0  0  0  0  0  0  0  0  0
   -3.0435   -3.8520    0.1830 C   0  0  0  0  0  0  0  0  0  0  0  0
   -6.6510   -3.2237   -0.3132 N   0  0  0  0  0  0  0  0  0  0  0  0
   -7.6375   -2.7020   -1.1275 C   0  0  0  0  0  0  0  0  0  0  0  0
   -7.4312   -2.0616   -2.1832 O   0  0  0  0  0  0  0  0  0  0  0  0
    3.4731   -0.0244   -1.3586 O   0  0  0  0  0  0  0  0  0  0  0  0
   -9.0409   -3.0846   -0.6858 C   0  0  0  0  0  0  0  0  0  0  0  0
  -10.0448   -2.0558   -1.0739 C   0  0  0  0  0  0  0  0  0  0  0  0
  -10.7776   -2.0177   -2.2463 C   0  0  0  0  0  0  0  0  0  0  0  0
  -11.7542   -0.6127   -2.2780 S   0  0  0  0  0  0  0  0  0  0  0  0
  -11.1533   -0.1724   -0.7325 C   0  0  0  0  0  0  0  0  0  0  0  0
  -10.3046   -1.0137   -0.1958 N   0  0  0  0  0  0  0  0  0  0  0  0
  -11.5156    0.9789   -0.1430 N   0  0  0  0  0  0  0  0  0  0  0  0
  1  2  2  0  0  0  0
  1  6  1  0  0  0  0
  2  3  1  0  0  0  0
  3  4  2  0  0  0  0
  4  5  1  0  0  0  0
  5  6  2  0  0  0  0
  7 21  1  6  0  0  0
  7  8  1  0  0  0  0
  7  5  1  0  0  0  0
  8  9  1  0  0  0  0
  9 10  1  0  0  0  0
 10 11  1  0  0  0  0
 11 12  1  0  0  0  0
 12 13  2  0  0  0  0
 12 17  1  0  0  0  0
 13 14  1  0  0  0  0
 14 15  2  0  0  0  0
 15 16  1  0  0  0  0
 15 18  1  0  0  0  0
 16 17  2  0  0  0  0
 18 19  1  0  0  0  0
 19 20  2  0  0  0  0
 19 22  1  0  0  0  0
 22 23  1  0  0  0  0
 23 24  2  0  0  0  0
 23 27  1  0  0  0  0
 24 25  1  0  0  0  0
 25 26  1  0  0  0  0
 26 27  2  0  0  0  0
 26 28  1  0  0  0  0
M  END
