929
 OpenBabel10141417483D

 27 27  0  0  1  0  0  0  0  0999 V2000
    2.6835   -0.3105    1.4414 O   0  0  0  0  0  0  0  0  0  0  0  0
    4.3914   -1.4336   -2.3354 O   0  0  0  0  0  0  0  0  0  0  0  0
    2.3952    4.7548   -4.0590 O   0  0  0  0  0  0  0  0  0  0  0  0
    8.6584   -2.0301    4.5485 O   0  0  0  0  0  0  0  0  0  0  0  0
   10.7722   -2.2047    3.5977 O   0  0  0  0  0  0  0  0  0  0  0  0
    4.0393    0.7146   -1.2968 C   0  0  1  0  0  0  0  0  0  0  0  0
    2.8146    1.1723   -0.4809 C   0  0  2  0  0  0  0  0  0  0  0  0
    2.1923   -0.0983    0.1232 C   0  0  1  0  0  0  0  0  0  0  0  0
    2.5722   -1.2638   -0.7785 C   0  0  0  0  0  0  0  0  0  0  0  0
    5.4395    0.9747   -0.7104 C   0  0  0  0  0  0  0  0  0  0  0  0
    3.7574   -0.7464   -1.5408 C   0  0  0  0  0  0  0  0  0  0  0  0
    1.7900    1.8560   -1.3711 C   0  0  0  0  0  0  0  0  0  0  0  0
    5.8240    0.3253    0.6315 C   0  0  0  0  0  0  0  0  0  0  0  0
    7.2865    0.6693    1.0004 C   0  0  0  0  0  0  0  0  0  0  0  0
    1.7657    3.1843   -1.5610 C   0  0  0  0  0  0  0  0  0  0  0  0
    1.3152    5.1429   -3.2030 C   0  0  3  0  0  0  0  0  0  0  0  0
    0.7725    3.8873   -2.4576 C   0  0  0  0  0  0  0  0  0  0  0  0
    7.7466    0.0825    2.3486 C   0  0  0  0  0  0  0  0  0  0  0  0
    0.1831    5.7371   -4.0849 C   0  0  0  0  0  0  0  0  0  0  0  0
    1.8569    6.1814   -2.2106 C   0  0  0  0  0  0  0  0  0  0  0  0
    9.1798    0.5297    2.6949 C   0  0  0  0  0  0  0  0  0  0  0  0
    0.6036    6.9580   -4.9193 C   0  0  0  0  0  0  0  0  0  0  0  0
   -0.5288    7.4666   -5.8144 C   0  0  0  0  0  0  0  0  0  0  0  0
    9.7272   -0.0339    4.0146 C   0  0  0  0  0  0  0  0  0  0  0  0
   -0.0872    8.6761   -6.6276 C   0  0  0  0  0  0  0  0  0  0  0  0
    9.8112   -1.5531    4.0079 C   0  0  0  0  0  0  0  0  0  0  0  0
    8.4923   -3.4551    4.5273 C   0  0  0  0  0  0  0  0  0  0  0  0
  2 11  2  0  0  0  0
  3 16  1  0  0  0  0
  4 26  1  0  0  0  0
  4 27  1  0  0  0  0
  5 26  2  0  0  0  0
  6  7  1  0  0  0  0
  6 10  1  1  0  0  0
  6 11  1  0  0  0  0
  7  8  1  0  0  0  0
  7 12  1  6  0  0  0
  8  9  1  0  0  0  0
  8  1  1  1  0  0  0
  9 11  1  0  0  0  0
 10 13  1  0  0  0  0
 12 15  2  0  0  0  0
 13 14  1  0  0  0  0
 14 18  1  0  0  0  0
 15 17  1  0  0  0  0
 16 17  1  0  0  0  0
 16 19  1  0  0  0  0
 16 20  1  0  0  0  0
 18 21  1  0  0  0  0
 19 22  1  0  0  0  0
 21 24  1  0  0  0  0
 22 23  1  0  0  0  0
 23 25  1  0  0  0  0
 24 26  1  0  0  0  0
M  END
