1204
 OpenBabel10141417523D

 32 34  0  0  0  0  0  0  0  0999 V2000
    2.5778   -3.6438   -1.2628 O   0  0  0  0  0  0  0  0  0  0  0  0
    5.9127   -1.4867    2.1906 O   0  0  0  0  0  0  0  0  0  0  0  0
    2.7928   -6.0455   -0.1112 O   0  0  0  0  0  0  0  0  0  0  0  0
    6.7454   -3.8019    3.0032 O   0  0  0  0  0  0  0  0  0  0  0  0
   -1.8234    2.3129    1.1022 O   0  0  0  0  0  0  0  0  0  0  0  0
    7.7028    2.7941   -3.6968 O   0  0  0  0  0  0  0  0  0  0  0  0
    0.8482   -1.1483   -0.3679 N   0  0  0  0  0  0  0  0  0  0  0  0
    6.1829    0.5716    0.0910 N   0  0  0  0  0  0  0  0  0  0  0  0
   -1.4583   -0.6868    1.6828 N   0  0  0  0  0  0  0  0  0  0  0  0
    4.9920    2.0044   -2.6229 N   0  0  0  0  0  0  0  0  0  0  0  0
    3.2459   -1.6848   -0.0881 C   0  0  0  0  0  0  0  0  0  0  0  0
    4.5065   -1.1962    0.3112 C   0  0  0  0  0  0  0  0  0  0  0  0
    2.1949   -0.7840   -0.3376 C   0  0  0  0  0  0  0  0  0  0  0  0
    4.8710    0.1379    0.1040 C   0  0  0  0  0  0  0  0  0  0  0  0
    3.9614   -4.0303    0.5938 C   0  0  0  0  0  0  0  0  0  0  0  0
    4.9660   -3.4674    1.3819 C   0  0  0  0  0  0  0  0  0  0  0  0
    3.1803   -3.1446   -0.2853 C   0  0  0  0  0  0  0  0  0  0  0  0
    5.2122   -2.0225    1.3013 C   0  0  0  0  0  0  0  0  0  0  0  0
    2.5271    0.5627   -0.2986 C   0  0  0  0  0  0  0  0  0  0  0  0
    3.8132    0.9974   -0.0684 C   0  0  0  0  0  0  0  0  0  0  0  0
   -0.1820   -0.0981   -0.4462 C   0  0  0  0  0  0  0  0  0  0  0  0
    6.7525    1.6756   -0.7142 C   0  0  0  0  0  0  0  0  0  0  0  0
    3.7230   -5.4115    0.6672 C   0  0  0  0  0  0  0  0  0  0  0  0
    5.7148   -4.2825    2.2405 C   0  0  0  0  0  0  0  0  0  0  0  0
   -1.4998   -0.5138    0.2207 C   0  0  0  0  0  0  0  0  0  0  0  0
    5.7930    2.5854   -1.5236 C   0  0  0  0  0  0  0  0  0  0  0  0
    4.4404   -6.2092    1.5560 C   0  0  0  0  0  0  0  0  0  0  0  0
    5.4457   -5.6439    2.3404 C   0  0  0  0  0  0  0  0  0  0  0  0
   -0.9499    0.4527    2.4671 C   0  0  0  0  0  0  0  0  0  0  0  0
    5.7760    1.2859   -3.6330 C   0  0  0  0  0  0  0  0  0  0  0  0
   -1.7814    1.7465    2.4072 C   0  0  0  0  0  0  0  0  0  0  0  0
    6.6634    2.2040   -4.4707 C   0  0  0  0  0  0  0  0  0  0  0  0
  1 17  2  0  0  0  0
  2 18  2  0  0  0  0
  3 23  1  0  0  0  0
  4 24  1  0  0  0  0
  5 31  1  0  0  0  0
  6 32  1  0  0  0  0
  7 13  1  0  0  0  0
  7 21  1  0  0  0  0
  8 14  1  0  0  0  0
  8 22  1  0  0  0  0
  9 25  1  0  0  0  0
  9 29  1  0  0  0  0
 10 26  1  0  0  0  0
 10 30  1  0  0  0  0
 11 12  1  0  0  0  0
 11 13  2  0  0  0  0
 11 17  1  0  0  0  0
 12 14  2  0  0  0  0
 12 18  1  0  0  0  0
 13 19  1  0  0  0  0
 14 20  1  0  0  0  0
 15 16  1  0  0  0  0
 15 17  1  0  0  0  0
 15 23  2  0  0  0  0
 16 18  1  0  0  0  0
 16 24  2  0  0  0  0
 19 20  2  0  0  0  0
 21 25  1  0  0  0  0
 22 26  1  0  0  0  0
 23 27  1  0  0  0  0
 24 28  1  0  0  0  0
 27 28  2  0  0  0  0
 29 31  1  0  0  0  0
 30 32  1  0  0  0  0
M  END
