648
 OpenBabel10141417483D

 18 19  0  0  1  0  0  0  0  0999 V2000
    1.7460   -1.7794   -0.8220 Cl  0  0  0  0  0  0  0  0  0  0  0  0
    4.3051   -1.7537    0.5182 Cl  0  0  0  0  0  0  0  0  0  0  0  0
    6.2698    0.2295   -2.1121 Cl  0  0  0  0  0  0  0  0  0  0  0  0
   -1.2655    3.8459   -2.9036 Cl  0  0  0  0  0  0  0  0  0  0  0  0
    3.3607    0.4764   -0.8805 C   0  0  3  0  0  0  0  0  0  0  0  0
    2.1940    1.3721   -1.3379 C   0  0  0  0  0  0  0  0  0  0  0  0
    4.5070    1.3043   -0.2805 C   0  0  0  0  0  0  0  0  0  0  0  0
    2.9281   -0.7154    0.0220 C   0  0  0  0  0  0  0  0  0  0  0  0
    2.2060    1.8823   -2.6477 C   0  0  0  0  0  0  0  0  0  0  0  0
    1.1041    1.6943   -0.5072 C   0  0  0  0  0  0  0  0  0  0  0  0
    5.8263    1.2320   -0.7738 C   0  0  0  0  0  0  0  0  0  0  0  0
    4.2688    2.1549    0.8178 C   0  0  0  0  0  0  0  0  0  0  0  0
    1.1422    2.6486   -3.1312 C   0  0  0  0  0  0  0  0  0  0  0  0
    0.0428    2.4658   -0.9909 C   0  0  0  0  0  0  0  0  0  0  0  0
    6.8562    1.9801   -0.1890 C   0  0  0  0  0  0  0  0  0  0  0  0
    5.2977    2.9139    1.3857 C   0  0  0  0  0  0  0  0  0  0  0  0
    0.0594    2.9291   -2.3013 C   0  0  0  0  0  0  0  0  0  0  0  0
    6.5912    2.8238    0.8845 C   0  0  0  0  0  0  0  0  0  0  0  0
  1  8  1  0  0  0  0
  2  8  1  0  0  0  0
  3 11  1  0  0  0  0
  4 17  1  0  0  0  0
  5  6  1  0  0  0  0
  5  7  1  0  0  0  0
  5  8  1  0  0  0  0
  6  9  2  0  0  0  0
  6 10  1  0  0  0  0
  7 11  1  0  0  0  0
  7 12  2  0  0  0  0
  9 13  1  0  0  0  0
 10 14  2  0  0  0  0
 11 15  2  0  0  0  0
 12 16  1  0  0  0  0
 13 17  2  0  0  0  0
 14 17  1  0  0  0  0
 15 18  1  0  0  0  0
 16 18  2  0  0  0  0
M  END
