1226
 OpenBabel10141417493D

 74 79  0  0  1  0  0  0  0  0999 V2000
   11.0053   -5.6291   -0.7383 O   0  0  0  0  0  0  0  0  0  0  0  0
    7.1262    0.9505    3.2520 O   0  0  0  0  0  0  0  0  0  0  0  0
    8.9810  -12.3255   -4.5759 O   0  0  0  0  0  0  0  0  0  0  0  0
    6.2840    5.0181    9.1665 O   0  0  0  0  0  0  0  0  0  0  0  0
    7.1223  -14.2921   -3.4926 O   0  0  0  0  0  0  0  0  0  0  0  0
    4.2280    7.3874    9.3919 O   0  0  0  0  0  0  0  0  0  0  0  0
    0.3699   -7.7585   -2.3976 O   0  0  0  0  0  0  0  0  0  0  0  0
   -1.3224    5.0298    7.1481 O   0  0  0  0  0  0  0  0  0  0  0  0
    1.3753  -10.8363   -6.1738 O   0  0  0  0  0  0  0  0  0  0  0  0
   -0.2021    4.1860    2.4734 O   0  0  0  0  0  0  0  0  0  0  0  0
   -0.7135   -9.2600   -4.4867 O   0  0  0  0  0  0  0  0  0  0  0  0
   -1.7825    5.5449    4.1810 O   0  0  0  0  0  0  0  0  0  0  0  0
    9.3250   -4.2024   -1.1777 O   0  0  0  0  0  0  0  0  0  0  0  0
    5.3711   -0.4650    2.8143 O   0  0  0  0  0  0  0  0  0  0  0  0
    6.2984   -8.3355   -0.8822 N   0  3  3  0  0  0  0  0  0  0  0  0
    3.5664    3.8581    3.8958 N   0  3  3  0  0  0  0  0  0  0  0  0
    6.3763   -8.8632   -2.4025 C   0  0  1  0  0  0  0  0  0  0  0  0
    3.5381    3.2842    5.3925 C   0  0  1  0  0  0  0  0  0  0  0  0
    6.3220   -9.5448    0.1205 C   0  0  0  0  0  0  0  0  0  0  0  0
    2.6990    5.2590    3.9457 C   0  0  0  0  0  0  0  0  0  0  0  0
    7.5641   -7.2150   -0.5025 C   0  0  0  0  0  0  0  0  0  0  0  0
    4.9842    4.1874    3.3235 C   0  0  0  0  0  0  0  0  0  0  0  0
    6.8758  -10.2917   -2.4609 C   0  0  0  0  0  0  0  0  0  0  0  0
    3.8550    4.3854    6.4381 C   0  0  0  0  0  0  0  0  0  0  0  0
    5.5241  -10.7467   -0.4307 C   0  0  0  0  0  0  0  0  0  0  0  0
    2.4401    6.0419    5.2289 C   0  0  0  0  0  0  0  0  0  0  0  0
    4.9324   -7.6892   -0.6225 C   0  0  0  0  0  0  0  0  0  0  0  0
    3.1459    2.8152    2.8023 C   0  0  0  0  0  0  0  0  0  0  0  0
    5.0757   -8.6649   -3.4884 C   0  0  0  0  0  0  0  0  0  0  0  0
    2.3477    2.1922    5.6546 C   0  0  0  0  0  0  0  0  0  0  0  0
    6.2437  -11.2315   -1.6534 C   0  0  0  0  0  0  0  0  0  0  0  0
    3.2637    5.6430    6.3807 C   0  0  0  0  0  0  0  0  0  0  0  0
    9.0614   -7.7495   -0.4799 C   0  0  0  0  0  0  0  0  0  0  0  0
    5.8260    2.9510    2.8406 C   0  0  0  0  0  0  0  0  0  0  0  0
    7.8654  -10.7206   -3.3485 C   0  0  0  0  0  0  0  0  0  0  0  0
    4.8719    4.2656    7.4163 C   0  0  0  0  0  0  0  0  0  0  0  0
    3.5410   -9.1078   -3.5980 C   0  0  0  0  0  0  0  0  0  0  0  0
    0.9053    2.6756    5.5286 C   0  0  0  0  0  0  0  0  0  0  0  0
    6.3246  -12.5779   -1.9821 C   0  0  0  0  0  0  0  0  0  0  0  0
    3.4478    6.5995    7.4015 C   0  0  0  0  0  0  0  0  0  0  0  0
   10.4182   -6.8823   -0.1566 C   0  0  0  0  0  0  0  0  0  0  0  0
    6.2627    1.9217    3.8889 C   0  0  0  0  0  0  0  0  0  0  0  0
    7.9953  -12.0801   -3.6559 C   0  0  0  0  0  0  0  0  0  0  0  0
    5.2154    5.3111    8.3484 C   0  0  0  0  0  0  0  0  0  0  0  0
    7.1559  -13.0115   -3.0235 C   0  0  0  0  0  0  0  0  0  0  0  0
    4.3830    6.4308    8.4232 C   0  0  0  0  0  0  0  0  0  0  0  0
    3.0103   -9.8936   -4.6910 C   0  0  0  0  0  0  0  0  0  0  0  0
    0.3675    2.6497    4.2478 C   0  0  0  0  0  0  0  0  0  0  0  0
    2.5234   -8.4770   -2.8768 C   0  0  0  0  0  0  0  0  0  0  0  0
    0.2014    3.3948    6.4984 C   0  0  0  0  0  0  0  0  0  0  0  0
    1.1228   -8.6275   -3.1730 C   0  0  0  0  0  0  0  0  0  0  0  0
   -0.7744    4.3509    6.0910 C   0  0  0  0  0  0  0  0  0  0  0  0
    1.5776  -10.0655   -5.0394 C   0  0  0  0  0  0  0  0  0  0  0  0
   -0.2572    3.7774    3.7871 C   0  0  0  0  0  0  0  0  0  0  0  0
    0.6204   -9.4229   -4.2436 C   0  0  0  0  0  0  0  0  0  0  0  0
   -0.9685    4.5631    4.7001 C   0  0  0  0  0  0  0  0  0  0  0  0
   10.4561   -4.3830   -1.0546 C   0  0  0  0  0  0  0  0  0  0  0  0
    6.5426   -0.1090    2.6273 C   0  0  0  0  0  0  0  0  0  0  0  0
    8.7861  -13.4289   -5.4532 C   0  0  0  0  0  0  0  0  0  0  0  0
    7.3560    5.9697    9.2707 C   0  0  0  0  0  0  0  0  0  0  0  0
    6.8177  -15.3236   -2.5659 C   0  0  0  0  0  0  0  0  0  0  0  0
    5.3645    7.7933   10.1139 C   0  0  0  0  0  0  0  0  0  0  0  0
   11.6030   -3.2666   -1.1729 C   0  0  0  0  0  0  0  0  0  0  0  0
    7.4812   -0.8010    1.6408 C   0  0  0  0  0  0  0  0  0  0  0  0
   11.2431   -1.7732   -1.5831 C   0  0  0  0  0  0  0  0  0  0  0  0
    8.7025   -0.0167    1.0943 C   0  0  0  0  0  0  0  0  0  0  0  0
   -0.9672   -8.1212   -2.0690 C   0  0  0  0  0  0  0  0  0  0  0  0
   -2.2368    6.1059    6.9630 C   0  0  0  0  0  0  0  0  0  0  0  0
    0.2468  -10.7302   -7.0568 C   0  0  0  0  0  0  0  0  0  0  0  0
    0.9555    4.2913    1.6803 C   0  0  0  0  0  0  0  0  0  0  0  0
   -1.5960  -10.3053   -4.8564 C   0  0  0  0  0  0  0  0  0  0  0  0
   -2.3826    5.2063    2.9145 C   0  0  0  0  0  0  0  0  0  0  0  0
   10.3184   -0.7596   -0.8585 C   0  0  0  0  0  0  0  0  0  0  0  0
    9.6246   -0.9473    0.2818 C   0  0  0  0  0  0  0  0  0  0  0  0
  1 41  1  0  0  0  0
  1 57  1  0  0  0  0
  2 42  1  0  0  0  0
  2 58  1  0  0  0  0
  3 43  1  0  0  0  0
  3 59  1  0  0  0  0
  4 44  1  0  0  0  0
  4 60  1  0  0  0  0
  5 45  1  0  0  0  0
  5 61  1  0  0  0  0
  6 46  1  0  0  0  0
  6 62  1  0  0  0  0
  7 51  1  0  0  0  0
  7 67  1  0  0  0  0
  8 52  1  0  0  0  0
  8 68  1  0  0  0  0
  9 53  1  0  0  0  0
  9 69  1  0  0  0  0
 10 54  1  0  0  0  0
 10 70  1  0  0  0  0
 11 55  1  0  0  0  0
 11 71  1  0  0  0  0
 12 56  1  0  0  0  0
 12 72  1  0  0  0  0
 13 57  2  0  0  0  0
 14 58  2  0  0  0  0
 15 17  1  0  0  0  0
 15 19  1  0  0  0  0
 15 21  1  0  0  0  0
 15 27  1  0  0  0  0
 16 18  1  0  0  0  0
 16 20  1  0  0  0  0
 16 22  1  0  0  0  0
 16 28  1  0  0  0  0
 17 23  1  0  0  0  0
 17 29  1  1  0  0  0
 18 24  1  0  0  0  0
 18 30  1  1  0  0  0
 19 25  1  0  0  0  0
 20 26  1  0  0  0  0
 21 33  1  0  0  0  0
 22 34  1  0  0  0  0
 23 31  1  0  0  0  0
 23 35  2  0  0  0  0
 24 32  1  0  0  0  0
 24 36  2  0  0  0  0
 25 31  1  0  0  0  0
 26 32  1  0  0  0  0
 29 37  1  0  0  0  0
 30 38  1  0  0  0  0
 31 39  2  0  0  0  0
 32 40  2  0  0  0  0
 33 41  1  0  0  0  0
 34 42  1  0  0  0  0
 35 43  1  0  0  0  0
 36 44  1  0  0  0  0
 37 47  2  0  0  0  0
 37 49  1  0  0  0  0
 38 48  2  0  0  0  0
 38 50  1  0  0  0  0
 39 45  1  0  0  0  0
 40 46  1  0  0  0  0
 43 45  2  0  0  0  0
 44 46  2  0  0  0  0
 47 53  1  0  0  0  0
 48 54  1  0  0  0  0
 49 51  2  0  0  0  0
 50 52  2  0  0  0  0
 51 55  1  0  0  0  0
 52 56  1  0  0  0  0
 53 55  2  0  0  0  0
 54 56  2  0  0  0  0
 57 63  1  0  0  0  0
 58 64  1  0  0  0  0
 63 65  1  0  0  0  0
 64 66  1  0  0  0  0
 65 73  1  0  0  0  0
 66 74  1  0  0  0  0
 73 74  2  0  0  0  0
M  CHG  2  15   1  16   1
M  END
