1171
 OpenBabel10141417503D

 18 19  0  0  0  0  0  0  0  0999 V2000
    2.1614   -0.2405    3.8032 Cl  0  0  0  0  0  0  0  0  0  0  0  0
   11.6085   -5.7546   -0.4407 O   0  0  0  0  0  0  0  0  0  0  0  0
    7.1007    0.4522   -0.6390 O   0  0  0  0  0  0  0  0  0  0  0  0
    9.0405   -4.3145   -0.1957 N   0  0  0  0  0  0  0  0  0  0  0  0
    7.5407   -1.7196   -0.0199 N   0  0  0  0  0  0  0  0  0  0  0  0
   10.2326   -4.0421    0.6416 C   0  0  0  0  0  0  0  0  0  0  0  0
    9.1614   -5.7123   -0.6925 C   0  0  0  0  0  0  0  0  0  0  0  0
    8.8912   -3.3559   -1.3154 C   0  0  0  0  0  0  0  0  0  0  0  0
   11.5695   -4.3812   -0.0386 C   0  0  0  0  0  0  0  0  0  0  0  0
   10.5244   -6.0555   -1.3274 C   0  0  0  0  0  0  0  0  0  0  0  0
    8.6894   -1.8834   -0.8904 C   0  0  0  0  0  0  0  0  0  0  0  0
    6.8353   -0.5303    0.0392 C   0  0  0  0  0  0  0  0  0  0  0  0
    5.6695   -0.5093    0.9715 C   0  0  0  0  0  0  0  0  0  0  0  0
    5.6538   -1.2623    2.1495 C   0  0  0  0  0  0  0  0  0  0  0  0
    4.5790    0.3224    0.6661 C   0  0  0  0  0  0  0  0  0  0  0  0
    4.5615   -1.1861    3.0180 C   0  0  0  0  0  0  0  0  0  0  0  0
    3.4840    0.3939    1.5349 C   0  0  0  0  0  0  0  0  0  0  0  0
    3.4853   -0.3548    2.7107 C   0  0  0  0  0  0  0  0  0  0  0  0
  1 18  1  0  0  0  0
  2  9  1  0  0  0  0
  2 10  1  0  0  0  0
  3 12  2  0  0  0  0
  4  6  1  0  0  0  0
  4  7  1  0  0  0  0
  4  8  1  0  0  0  0
  5 11  1  0  0  0  0
  5 12  1  0  0  0  0
  6  9  1  0  0  0  0
  7 10  1  0  0  0  0
  8 11  1  0  0  0  0
 12 13  1  0  0  0  0
 13 14  2  0  0  0  0
 13 15  1  0  0  0  0
 14 16  1  0  0  0  0
 15 17  2  0  0  0  0
 16 18  2  0  0  0  0
 17 18  1  0  0  0  0
M  END
