745
 OpenBabel10141417483D

 19 20  0  0  1  0  0  0  0  0999 V2000
    0.9316   -2.5333   -1.7264 S   0  0  3  0  0  0  0  0  0  0  0  0
   -0.5489   -2.5538   -1.4655 O   0  0  0  0  0  0  0  0  0  0  0  0
    2.3012   -1.1620    1.4713 O   0  0  0  0  0  0  0  0  0  0  0  0
    0.0724   -1.1450    1.0460 N   0  0  0  0  0  0  0  0  0  0  0  0
    1.2408   -1.9181   -3.4619 C   0  0  0  0  0  0  0  0  0  0  0  0
    2.7367   -1.8351   -3.8048 C   0  0  0  0  0  0  0  0  0  0  0  0
    0.4297   -2.6918   -4.5139 C   0  0  0  0  0  0  0  0  0  0  0  0
    1.6009   -1.0691   -0.8530 C   0  0  0  0  0  0  0  0  0  0  0  0
    3.1816   -0.8833   -4.7412 C   0  0  0  0  0  0  0  0  0  0  0  0
    0.9270   -3.8551   -5.1279 C   0  0  0  0  0  0  0  0  0  0  0  0
    3.6903   -2.7214   -3.2680 C   0  0  0  0  0  0  0  0  0  0  0  0
   -0.8306   -2.2233   -4.9370 C   0  0  0  0  0  0  0  0  0  0  0  0
    4.5331   -0.8005   -5.0948 C   0  0  0  0  0  0  0  0  0  0  0  0
    0.2175   -4.5013   -6.1468 C   0  0  0  0  0  0  0  0  0  0  0  0
    5.0406   -2.6273   -3.6122 C   0  0  0  0  0  0  0  0  0  0  0  0
   -1.5360   -2.8670   -5.9648 C   0  0  0  0  0  0  0  0  0  0  0  0
    5.4628   -1.6653   -4.5228 C   0  0  0  0  0  0  0  0  0  0  0  0
   -1.0093   -4.0032   -6.5725 C   0  0  0  0  0  0  0  0  0  0  0  0
    1.3830   -1.1597    0.6396 C   0  0  0  0  0  0  0  0  0  0  0  0
  1  2  2  0  0  0  0
  1  5  1  0  0  0  0
  1  8  1  0  0  0  0
  3 19  2  0  0  0  0
  4 19  1  0  0  0  0
  5  6  1  0  0  0  0
  5  7  1  0  0  0  0
  6  9  2  0  0  0  0
  6 11  1  0  0  0  0
  7 10  2  0  0  0  0
  7 12  1  0  0  0  0
  8 19  1  0  0  0  0
  9 13  1  0  0  0  0
 10 14  1  0  0  0  0
 11 15  2  0  0  0  0
 12 16  2  0  0  0  0
 13 17  2  0  0  0  0
 14 18  2  0  0  0  0
 15 17  1  0  0  0  0
 16 18  1  0  0  0  0
M  END
