691
 OpenBabel10141417523D

 36 38  0  0  1  0  0  0  0  0999 V2000
    4.2269    1.1957    1.8951 O   0  0  0  0  0  0  0  0  0  0  0  0
    5.5748   -2.4781    4.4689 O   0  0  0  0  0  0  0  0  0  0  0  0
    0.4900   -6.3416    3.3581 O   0  0  0  0  0  0  0  0  0  0  0  0
    1.1605   -6.4286    0.5536 O   0  0  0  0  0  0  0  0  0  0  0  0
    6.2256   -2.2544    2.3529 O   0  0  0  0  0  0  0  0  0  0  0  0
    3.4019    4.4615   -3.1176 O   0  0  0  0  0  0  0  0  0  0  0  0
    2.6991    4.8143   -0.9621 O   0  0  0  0  0  0  0  0  0  0  0  0
    3.7256   -1.0127    1.6100 N   0  0  0  0  0  0  0  0  0  0  0  0
    3.3526    2.0639   -0.5313 N   0  0  0  0  0  0  0  0  0  0  0  0
    4.0496   -1.2885    3.0264 C   0  0  1  0  0  0  0  0  0  0  0  0
    2.8677   -2.0093    3.6809 C   0  0  0  0  0  0  0  0  0  0  0  0
    3.4247   -2.1824    0.7821 C   0  0  0  0  0  0  0  0  0  0  0  0
    2.4125   -3.1990    2.8737 C   0  0  0  0  0  0  0  0  0  0  0  0
    2.6756   -3.2736    1.5039 C   0  0  0  0  0  0  0  0  0  0  0  0
    3.4099    0.6019   -0.3261 C   0  0  2  0  0  0  0  0  0  0  0  0
    3.8671    0.2895    1.1347 C   0  0  0  0  0  0  0  0  0  0  0  0
    2.8624    2.5204   -1.8534 C   0  0  1  0  0  0  0  0  0  0  0  0
    1.6690   -4.2155    3.4949 C   0  0  0  0  0  0  0  0  0  0  0  0
    5.3695   -2.0560    3.2005 C   0  0  0  0  0  0  0  0  0  0  0  0
    2.2377   -4.3920    0.7902 C   0  0  0  0  0  0  0  0  0  0  0  0
    1.4291    2.0382   -2.1516 C   0  0  0  0  0  0  0  0  0  0  0  0
    4.2961   -0.0276   -1.3987 C   0  0  0  0  0  0  0  0  0  0  0  0
    1.2032   -5.3269    2.7792 C   0  0  0  0  0  0  0  0  0  0  0  0
    1.4909   -5.4136    1.4065 C   0  0  0  0  0  0  0  0  0  0  0  0
    0.8611    2.4049   -3.5303 C   0  0  0  0  0  0  0  0  0  0  0  0
    2.9727    4.0617   -1.8876 C   0  0  0  0  0  0  0  0  0  0  0  0
    1.6039    1.8115   -4.7054 C   0  0  0  0  0  0  0  0  0  0  0  0
    1.3459    0.5082   -5.1481 C   0  0  0  0  0  0  0  0  0  0  0  0
    2.5625    2.5661   -5.3929 C   0  0  0  0  0  0  0  0  0  0  0  0
    0.2274   -6.2621    4.7525 C   0  0  0  0  0  0  0  0  0  0  0  0
   -0.0538   -7.1212    0.8103 C   0  0  0  0  0  0  0  0  0  0  0  0
    3.5821    5.8647   -3.3432 C   0  0  0  0  0  0  0  0  0  0  0  0
    2.0336   -0.0165   -6.2473 C   0  0  0  0  0  0  0  0  0  0  0  0
    3.2790    2.0319   -6.4621 C   0  0  0  0  0  0  0  0  0  0  0  0
    3.0071    0.7416   -6.8980 C   0  0  0  0  0  0  0  0  0  0  0  0
    2.2521    6.5640   -3.5541 C   0  0  0  0  0  0  0  0  0  0  0  0
  1 16  2  0  0  0  0
  2 19  1  0  0  0  0
  3 23  1  0  0  0  0
  3 30  1  0  0  0  0
  4 24  1  0  0  0  0
  4 31  1  0  0  0  0
  5 19  2  0  0  0  0
  6 26  1  0  0  0  0
  6 32  1  0  0  0  0
  7 26  2  0  0  0  0
  8 10  1  0  0  0  0
  8 12  1  0  0  0  0
  8 16  1  0  0  0  0
 10 11  1  0  0  0  0
 10 19  1  6  0  0  0
 11 13  1  0  0  0  0
 12 14  1  0  0  0  0
 13 14  1  0  0  0  0
 13 18  2  0  0  0  0
 14 20  2  0  0  0  0
 15  9  1  6  0  0  0
 15 16  1  0  0  0  0
 15 22  1  0  0  0  0
 17  9  1  1  0  0  0
 17 21  1  0  0  0  0
 17 26  1  0  0  0  0
 18 23  1  0  0  0  0
 20 24  1  0  0  0  0
 21 25  1  0  0  0  0
 23 24  2  0  0  0  0
 25 27  1  0  0  0  0
 27 28  2  0  0  0  0
 27 29  1  0  0  0  0
 28 33  1  0  0  0  0
 29 34  2  0  0  0  0
 32 36  1  0  0  0  0
 33 35  2  0  0  0  0
 34 35  1  0  0  0  0
M  END
