1618
 OpenBabel10141417493D

 20 22  0  0  1  0  0  0  0  0999 V2000
   -1.3538    0.8779    0.0053 O   0  0  0  0  0  0  0  0  0  0  0  0
    0.0804   -2.6814    4.5537 O   0  0  0  0  0  0  0  0  0  0  0  0
   -0.5967   -1.9751    0.1353 N   0  0  0  0  0  0  0  0  0  0  0  0
   -0.8661   -6.9161    3.0426 N   0  0  0  0  0  0  0  0  0  0  0  0
    0.5054   -3.0315    2.2065 C   0  0  3  0  0  0  0  0  0  0  0  0
    1.2034   -4.1961    1.4690 C   0  0  0  0  0  0  0  0  0  0  0  0
   -0.7565   -2.4613    1.5214 C   0  0  0  0  0  0  0  0  0  0  0  0
    0.3390   -5.4629    1.3592 C   0  0  0  0  0  0  0  0  0  0  0  0
   -0.3952   -4.8508    3.7389 C   0  0  0  0  0  0  0  0  0  0  0  0
   -0.2888   -5.7330    2.6817 C   0  0  0  0  0  0  0  0  0  0  0  0
    0.0856   -3.4734    3.6179 C   0  0  0  0  0  0  0  0  0  0  0  0
   -1.0103   -5.5546    4.8166 C   0  0  0  0  0  0  0  0  0  0  0  0
    0.3763   -0.8666    0.0004 C   0  0  0  0  0  0  0  0  0  0  0  0
   -1.8960   -1.4804   -0.3998 C   0  0  0  0  0  0  0  0  0  0  0  0
   -1.3113   -6.8264    4.3404 C   0  0  0  0  0  0  0  0  0  0  0  0
   -0.1050    0.4748    0.5817 C   0  0  0  0  0  0  0  0  0  0  0  0
   -2.3508   -0.1330    0.1958 C   0  0  0  0  0  0  0  0  0  0  0  0
   -1.2899   -5.0236    6.1892 C   0  0  0  0  0  0  0  0  0  0  0  0
   -1.9844   -7.9728    5.0071 C   0  0  0  0  0  0  0  0  0  0  0  0
   -2.6578   -4.3687    6.2922 C   0  0  0  0  0  0  0  0  0  0  0  0
  1 16  1  0  0  0  0
  1 17  1  0  0  0  0
  2 11  2  0  0  0  0
  3  7  1  0  0  0  0
  3 13  1  0  0  0  0
  3 14  1  0  0  0  0
  4 10  1  0  0  0  0
  4 15  1  0  0  0  0
  5  6  1  0  0  0  0
  5  7  1  0  0  0  0
  5 11  1  0  0  0  0
  6  8  1  0  0  0  0
  8 10  1  0  0  0  0
  9 10  2  0  0  0  0
  9 11  1  0  0  0  0
  9 12  1  0  0  0  0
 12 15  2  0  0  0  0
 12 18  1  0  0  0  0
 13 16  1  0  0  0  0
 14 17  1  0  0  0  0
 15 19  1  0  0  0  0
 18 20  1  0  0  0  0
M  END
