
 OpenBabel10141417483D

 28 31  0  0  1  0  0  0  0  0999 V2000
    2.0367    2.1611    5.1951 C   0  0  0  0  0  0  0  0  0  0  0  0
    1.0612    1.4270    4.2406 C   0  0  2  0  0  0  0  0  0  0  0  0
    3.4397    2.1891    3.1295 C   0  0  0  0  0  0  0  0  0  0  0  0
    3.4686    2.2561    4.6358 C   0  0  0  0  0  0  0  0  0  0  0  0
    1.7529    0.2354    3.5046 C   0  0  1  0  0  0  0  0  0  0  0  0
    2.8446    0.9009    2.4925 C   0  0  1  0  0  0  0  0  0  0  0  0
    2.5806    2.3619    0.4159 C   0  0  0  0  0  0  0  0  0  0  0  0
    3.4628    3.3975    0.9833 C   0  0  0  0  0  0  0  0  0  0  0  0
    3.7624    3.2891    2.4245 C   0  0  0  0  0  0  0  0  0  0  0  0
    2.2765    1.2502    1.1053 C   0  0  0  0  0  0  0  0  0  0  0  0
   -0.6602   -0.0338    2.5812 C   0  0  0  0  0  0  0  0  0  0  0  0
    0.7027   -0.6977    2.8057 C   0  0  2  0  0  0  0  0  0  0  0  0
   -0.3724    0.2383    6.0912 C   0  0  0  0  0  0  0  0  0  0  0  0
   -1.3514   -0.8915    5.7712 C   0  0  2  0  0  0  0  0  0  0  0  0
   -2.2952   -0.2947    4.7044 C   0  0  1  0  0  0  0  0  0  0  0  0
    3.8588    4.3398    0.3124 O   0  0  0  0  0  0  0  0  0  0  0  0
    2.6305   -0.8303    4.7392 Cl  0  0  0  0  0  0  0  0  0  0  0  0
   -1.3590    0.6228    3.8213 C   0  0  1  0  0  0  0  0  0  0  0  0
   -2.1458    1.8362    3.2455 C   0  0  0  0  0  0  0  0  0  0  0  0
   -0.3199    1.1570    4.8618 C   0  0  2  0  0  0  0  0  0  0  0  0
    4.0131   -0.0702    2.1839 C   0  0  0  0  0  0  0  0  0  0  0  0
    0.4344   -1.9127    3.4993 O   0  0  0  0  0  0  0  0  0  0  0  0
   -2.0228   -1.4207    7.0390 C   0  0  0  0  0  0  0  0  0  0  0  0
   -3.0524   -1.3978    3.9209 C   0  0  0  0  0  0  0  0  0  0  0  0
   -4.4014   -1.0439    3.3416 C   0  0  0  0  0  0  0  0  0  0  0  0
   -5.6482   -1.4347    4.5442 Cl  0  0  0  0  0  0  0  0  0  0  0  0
   -2.6128   -2.5437    3.7950 O   0  0  0  0  0  0  0  0  0  0  0  0
   -3.2387    0.5518    5.3795 O   0  0  0  0  0  0  0  0  0  0  0  0
  2  1  1  6  0  0  0
  2  5  1  0  0  0  0
  3  4  1  0  0  0  0
  4  1  1  0  0  0  0
  5 12  1  0  0  0  0
  5 17  1  6  0  0  0
  5  6  1  0  0  0  0
  6  3  1  0  0  0  0
  6 10  1  0  0  0  0
  6 21  1  6  0  0  0
  7  8  1  0  0  0  0
  7 10  2  0  0  0  0
  8  9  1  0  0  0  0
  8 16  2  0  0  0  0
  9  3  2  0  0  0  0
 11 12  1  0  0  0  0
 12 22  1  1  0  0  0
 13 14  1  0  0  0  0
 14 23  1  1  0  0  0
 15 14  1  0  0  0  0
 15 24  1  6  0  0  0
 15 28  1  0  0  0  0
 18 11  1  0  0  0  0
 18 15  1  0  0  0  0
 18 19  1  1  0  0  0
 20  2  1  0  0  0  0
 20 13  1  1  0  0  0
 20 18  1  0  0  0  0
 24 25  1  0  0  0  0
 24 27  2  0  0  0  0
 25 26  1  0  0  0  0
M  END
