600
 OpenBabel10141417473D

 15 16  0  0  0  0  0  0  0  0999 V2000
   -1.7121    0.8639   -1.3169 O   0  0  0  0  0  0  0  0  0  0  0  0
    2.1985    4.5959   -2.4038 O   0  0  0  0  0  0  0  0  0  0  0  0
   -2.8554   -0.8695   -0.0911 C   0  0  0  0  0  0  0  0  0  0  0  0
   -1.6244    0.0060   -0.1775 C   0  0  0  0  0  0  0  0  0  0  0  0
   -0.6933    1.7539   -1.5117 C   0  0  0  0  0  0  0  0  0  0  0  0
   -3.2886   -1.3401    1.1582 C   0  0  0  0  0  0  0  0  0  0  0  0
   -3.5596   -1.2633   -1.2387 C   0  0  0  0  0  0  0  0  0  0  0  0
   -0.8421    2.5682   -2.6394 C   0  0  0  0  0  0  0  0  0  0  0  0
    0.4334    1.9054   -0.7010 C   0  0  0  0  0  0  0  0  0  0  0  0
   -4.4255   -2.1445    1.2598 C   0  0  0  0  0  0  0  0  0  0  0  0
   -4.6978   -2.0648   -1.1354 C   0  0  0  0  0  0  0  0  0  0  0  0
   -5.1343   -2.4992    0.1141 C   0  0  0  0  0  0  0  0  0  0  0  0
    0.1195    3.5295   -2.9582 C   0  0  0  0  0  0  0  0  0  0  0  0
    1.3957    2.8681   -1.0172 C   0  0  0  0  0  0  0  0  0  0  0  0
    1.2328    3.6714   -2.1390 C   0  0  0  0  0  0  0  0  0  0  0  0
  1  4  1  0  0  0  0
  1  5  1  0  0  0  0
  2 15  1  0  0  0  0
  3  4  1  0  0  0  0
  3  6  2  0  0  0  0
  3  7  1  0  0  0  0
  5  8  2  0  0  0  0
  5  9  1  0  0  0  0
  6 10  1  0  0  0  0
  7 11  2  0  0  0  0
  8 13  1  0  0  0  0
  9 14  2  0  0  0  0
 10 12  2  0  0  0  0
 11 12  1  0  0  0  0
 13 15  2  0  0  0  0
 14 15  1  0  0  0  0
M  END
