471
 OpenBabel10141417493D

 41 45  0  0  1  0  0  0  0  0999 V2000
   19.2037  -15.1291    5.4678 Cl  0  0  0  0  0  0  0  0  0  0  0  0
   11.3115   -6.9920    0.5163 S   0  0  0  0  0  0  0  0  0  0  0  0
    8.8364   -3.0344    0.6328 O   0  0  0  0  0  0  0  0  0  0  0  0
    8.7275   -1.7070    2.4020 O   0  0  0  0  0  0  0  0  0  0  0  0
   17.3876  -10.4953   -1.7561 O   0  0  0  0  0  0  0  0  0  0  0  0
   17.8991  -10.3843    4.6238 N   0  0  0  0  0  0  0  0  0  0  0  0
   11.2700   -4.0669    1.6216 C   0  0  0  0  0  0  0  0  0  0  0  0
   12.6813   -4.0112    1.9832 C   0  0  0  0  0  0  0  0  0  0  0  0
   11.3756   -4.7101    2.9093 C   0  0  0  0  0  0  0  0  0  0  0  0
   10.9636   -5.0416    0.4344 C   0  0  0  0  0  0  0  0  0  0  0  0
   10.8069   -2.6809    1.8404 C   0  0  0  0  0  0  0  0  0  0  0  0
    9.3522   -2.4233    1.7177 C   0  0  0  0  0  0  0  0  0  0  0  0
   13.2606   -7.3502    0.6770 C   0  0  2  0  0  0  0  0  0  0  0  0
   13.6509   -8.6327   -0.0597 C   0  0  0  0  0  0  0  0  0  0  0  0
   13.7758   -7.3357    2.1416 C   0  0  0  0  0  0  0  0  0  0  0  0
   15.1773   -8.8889   -0.1921 C   0  0  0  0  0  0  0  0  0  0  0  0
   14.6048   -8.0158    2.9542 C   0  0  0  0  0  0  0  0  0  0  0  0
   13.3947   -6.2611    2.8498 C   0  0  0  0  0  0  0  0  0  0  0  0
   16.0116   -7.8521   -0.9338 C   0  0  0  0  0  0  0  0  0  0  0  0
   16.8597   -8.1521   -2.0303 C   0  0  0  0  0  0  0  0  0  0  0  0
   14.8809   -7.5506    4.3140 C   0  0  0  0  0  0  0  0  0  0  0  0
   13.5816   -5.7282    4.1415 C   0  0  0  0  0  0  0  0  0  0  0  0
   16.9596   -9.5281   -2.7194 C   0  0  0  0  0  0  0  0  0  0  0  0
   16.0211   -6.5224   -0.4352 C   0  0  0  0  0  0  0  0  0  0  0  0
   14.2964   -6.4792    4.9629 C   0  0  0  0  0  0  0  0  0  0  0  0
   17.6771   -7.0939   -2.5110 C   0  0  0  0  0  0  0  0  0  0  0  0
   16.7590   -5.4922   -1.0014 C   0  0  0  0  0  0  0  0  0  0  0  0
   15.9863   -8.1061    5.0074 C   0  0  0  0  0  0  0  0  0  0  0  0
   15.6222   -9.9886   -3.3300 C   0  0  0  0  0  0  0  0  0  0  0  0
   17.9877   -9.5757   -3.8747 C   0  0  0  0  0  0  0  0  0  0  0  0
   17.6274   -5.7915   -2.0189 C   0  0  0  0  0  0  0  0  0  0  0  0
   17.0668   -8.2717    4.2472 C   0  0  0  0  0  0  0  0  0  0  0  0
   18.0987   -9.0654    4.8007 C   0  0  0  0  0  0  0  0  0  0  0  0
   19.1059   -8.4691    5.5200 C   0  0  0  0  0  0  0  0  0  0  0  0
   18.7626  -11.1938    5.2057 C   0  0  0  0  0  0  0  0  0  0  0  0
   20.0129   -9.3175    6.1087 C   0  0  0  0  0  0  0  0  0  0  0  0
   19.8492  -10.7026    5.9640 C   0  0  0  0  0  0  0  0  0  0  0  0
   18.5686  -12.5501    5.0573 C   0  0  0  0  0  0  0  0  0  0  0  0
   20.7305  -11.6013    6.5586 C   0  0  0  0  0  0  0  0  0  0  0  0
   19.4494  -13.4383    5.6543 C   0  0  0  0  0  0  0  0  0  0  0  0
   20.5280  -12.9708    6.4032 C   0  0  0  0  0  0  0  0  0  0  0  0
  1 40  1  0  0  0  0
  2 10  1  0  0  0  0
  3 12  1  0  0  0  0
  4 12  2  0  0  0  0
  5 23  1  0  0  0  0
  6 33  2  0  0  0  0
  6 35  1  0  0  0  0
  7  8  1  0  0  0  0
  7  9  1  0  0  0  0
  7 10  1  0  0  0  0
  7 11  1  0  0  0  0
  8  9  1  0  0  0  0
 11 12  1  0  0  0  0
 13 15  1  1  0  0  0
 13 14  1  0  0  0  0
 13  2  1  0  0  0  0
 14 16  1  0  0  0  0
 15 17  1  0  0  0  0
 15 18  2  0  0  0  0
 16 19  1  0  0  0  0
 17 21  2  0  0  0  0
 18 22  1  0  0  0  0
 19 20  1  0  0  0  0
 19 24  2  0  0  0  0
 20 23  1  0  0  0  0
 20 26  2  0  0  0  0
 21 25  1  0  0  0  0
 21 28  1  0  0  0  0
 22 25  2  0  0  0  0
 23 29  1  0  0  0  0
 23 30  1  0  0  0  0
 24 27  1  0  0  0  0
 26 31  1  0  0  0  0
 27 31  2  0  0  0  0
 28 32  2  0  0  0  0
 32 33  1  0  0  0  0
 33 34  1  0  0  0  0
 34 36  2  0  0  0  0
 35 37  2  0  0  0  0
 35 38  1  0  0  0  0
 36 37  1  0  0  0  0
 37 39  1  0  0  0  0
 38 40  2  0  0  0  0
 39 41  2  0  0  0  0
 40 41  1  0  0  0  0
M  END
