218
 OpenBabel10141417503D

 29 33  0  0  1  0  0  0  0  0999 V2000
    0.8960    0.3539    0.4481 F   0  0  0  0  0  0  0  0  0  0  0  0
    5.2173    2.4590   -0.0264 O   0  0  0  0  0  0  0  0  0  0  0  0
    4.1807   -3.3892    0.6435 O   0  0  0  0  0  0  0  0  0  0  0  0
    6.3710   -4.7667    0.2777 O   0  0  0  0  0  0  0  0  0  0  0  0
    8.2645   -3.6033   -0.0959 O   0  0  0  0  0  0  0  0  0  0  0  0
    2.3308    2.7596   -0.0213 N   0  0  0  0  0  0  0  0  0  0  0  0
    1.8346    6.4352    0.3606 N   0  0  0  0  0  0  0  0  0  0  0  0
    6.4223    0.0046    0.8663 N   0  0  0  0  0  0  0  0  0  0  0  0
    0.5653    4.3436   -0.2132 C   0  0  2  0  0  0  0  0  0  0  0  0
    1.6939    4.9942    0.5893 C   0  0  1  0  0  0  0  0  0  0  0  0
    0.8619    2.8596   -0.0136 C   0  0  0  0  0  0  0  0  0  0  0  0
    2.9149    4.0730    0.3149 C   0  0  0  0  0  0  0  0  0  0  0  0
    0.5571    4.7584   -1.6875 C   0  0  0  0  0  0  0  0  0  0  0  0
    7.1374    1.0163    1.6902 C   0  0  0  0  0  0  0  0  0  0  0  0
    0.5837    6.2779   -1.7811 C   0  0  0  0  0  0  0  0  0  0  0  0
    7.9266    2.1227    1.0424 C   0  0  0  0  0  0  0  0  0  0  0  0
    8.6440    1.0845    1.8402 C   0  0  0  0  0  0  0  0  0  0  0  0
    1.8007    6.8332   -1.0452 C   0  0  0  0  0  0  0  0  0  0  0  0
    2.9740    1.5452    0.2384 C   0  0  0  0  0  0  0  0  0  0  0  0
    5.0187    0.1535    0.6049 C   0  0  0  0  0  0  0  0  0  0  0  0
    4.3933    1.3946    0.2870 C   0  0  0  0  0  0  0  0  0  0  0  0
    4.2113   -0.9996    0.6207 C   0  0  0  0  0  0  0  0  0  0  0  0
    2.2386    0.3471    0.4257 C   0  0  0  0  0  0  0  0  0  0  0  0
    6.9769   -1.2614    0.7606 C   0  0  0  0  0  0  0  0  0  0  0  0
    2.8294   -0.9043    0.5781 C   0  0  0  0  0  0  0  0  0  0  0  0
    6.3151   -2.4012    0.5386 C   0  0  0  0  0  0  0  0  0  0  0  0
    4.8418   -2.3522    0.6207 C   0  0  0  0  0  0  0  0  0  0  0  0
    7.0935   -3.6191    0.2203 C   0  0  0  0  0  0  0  0  0  0  0  0
    5.2637    2.7163   -1.4382 C   0  0  0  0  0  0  0  0  0  0  0  0
  1 23  1  0  0  0  0
  2 21  1  0  0  0  0
  2 29  1  0  0  0  0
  3 27  2  0  0  0  0
  4 28  1  0  0  0  0
  5 28  2  0  0  0  0
  6 11  1  0  0  0  0
  6 12  1  0  0  0  0
  6 19  1  0  0  0  0
  7 18  1  0  0  0  0
  8 14  1  0  0  0  0
  8 20  1  0  0  0  0
  8 24  1  0  0  0  0
  9 10  1  0  0  0  0
  9 11  1  6  0  0  0
  9 13  1  0  0  0  0
 10  7  1  6  0  0  0
 10 12  1  0  0  0  0
 13 15  1  0  0  0  0
 14 16  1  0  0  0  0
 14 17  1  0  0  0  0
 15 18  1  0  0  0  0
 16 17  1  0  0  0  0
 19 21  1  0  0  0  0
 19 23  2  0  0  0  0
 20 21  2  0  0  0  0
 20 22  1  0  0  0  0
 22 25  2  0  0  0  0
 22 27  1  0  0  0  0
 23 25  1  0  0  0  0
 24 26  2  0  0  0  0
 26 27  1  0  0  0  0
 26 28  1  0  0  0  0
M  END
