688
 OpenBabel10141417513D

 31 33  0  0  0  0  0  0  0  0999 V2000
   10.1279   -7.9189   12.5227 O   0  0  0  0  0  0  0  0  0  0  0  0
    3.8597   -0.3927    3.3303 O   0  0  0  0  0  0  0  0  0  0  0  0
    5.0330   -5.8425   10.7963 O   0  0  0  0  0  0  0  0  0  0  0  0
   -0.6956   -0.6082    7.1931 O   0  0  0  0  0  0  0  0  0  0  0  0
    1.5642   -3.8124    4.4514 O   0  0  0  0  0  0  0  0  0  0  0  0
    3.7121   -2.6765    2.9773 O   0  0  0  0  0  0  0  0  0  0  0  0
    2.9291   -6.2789   11.6048 O   0  0  0  0  0  0  0  0  0  0  0  0
    7.2192   -8.0277   12.9590 N   0  0  0  0  0  0  0  0  0  0  0  0
    8.1103   -7.0494   13.6221 C   0  0  0  0  0  0  0  0  0  0  0  0
    8.0461   -9.2174   12.6326 C   0  0  0  0  0  0  0  0  0  0  0  0
    6.5564   -7.4764   11.7592 C   0  0  0  0  0  0  0  0  0  0  0  0
    9.3812   -6.7315   12.8161 C   0  0  0  0  0  0  0  0  0  0  0  0
    9.3194   -8.8826   11.8341 C   0  0  0  0  0  0  0  0  0  0  0  0
    2.0887   -0.2172    4.7922 C   0  0  0  0  0  0  0  0  0  0  0  0
    0.4464   -2.2107    5.8648 C   0  0  0  0  0  0  0  0  0  0  0  0
    2.2239   -1.5268    4.4129 C   0  0  0  0  0  0  0  0  0  0  0  0
    1.0965    0.1779    5.6894 C   0  0  0  0  0  0  0  0  0  0  0  0
    5.6274   -6.2791   12.0365 C   0  0  0  0  0  0  0  0  0  0  0  0
    0.2580   -0.8358    6.2263 C   0  0  0  0  0  0  0  0  0  0  0  0
    1.4205   -2.5299    4.9019 C   0  0  0  0  0  0  0  0  0  0  0  0
   -0.3369   -3.3334    6.5296 C   0  0  0  0  0  0  0  0  0  0  0  0
    3.1505    0.5744    4.1226 C   0  0  0  0  0  0  0  0  0  0  0  0
    0.3277   -3.8843    7.7797 C   0  0  0  0  0  0  0  0  0  0  0  0
    3.3382   -1.6497    3.4825 C   0  0  0  0  0  0  0  0  0  0  0  0
    1.6958   -5.4163    9.2320 C   0  0  0  0  0  0  0  0  0  0  0  0
    1.1668   -4.9408    7.8843 C   0  0  0  0  0  0  0  0  0  0  0  0
    1.0126    1.6327    6.0464 C   0  0  0  0  0  0  0  0  0  0  0  0
    3.2249   -5.3944    9.3581 C   0  0  0  0  0  0  0  0  0  0  0  0
    3.6727   -5.8876   10.7176 C   0  0  0  0  0  0  0  0  0  0  0  0
    1.6174   -5.7681    6.7104 C   0  0  0  0  0  0  0  0  0  0  0  0
   -1.5624    0.5097    7.0167 C   0  0  0  0  0  0  0  0  0  0  0  0
  1 12  1  0  0  0  0
  1 13  1  0  0  0  0
  2 22  1  0  0  0  0
  2 24  1  0  0  0  0
  3 18  1  0  0  0  0
  3 29  1  0  0  0  0
  4 19  1  0  0  0  0
  4 31  1  0  0  0  0
  5 20  1  0  0  0  0
  6 24  2  0  0  0  0
  7 29  2  0  0  0  0
  8  9  1  0  0  0  0
  8 10  1  0  0  0  0
  8 11  1  0  0  0  0
  9 12  1  0  0  0  0
 10 13  1  0  0  0  0
 11 18  1  0  0  0  0
 14 16  1  0  0  0  0
 14 17  2  0  0  0  0
 14 22  1  0  0  0  0
 15 19  2  0  0  0  0
 15 20  1  0  0  0  0
 15 21  1  0  0  0  0
 16 20  2  0  0  0  0
 16 24  1  0  0  0  0
 17 19  1  0  0  0  0
 17 27  1  0  0  0  0
 21 23  1  0  0  0  0
 23 26  2  0  0  0  0
 25 26  1  0  0  0  0
 25 28  1  0  0  0  0
 26 30  1  0  0  0  0
 28 29  1  0  0  0  0
M  END
