1024
 OpenBabel10141417513D

 23 24  0  0  0  0  0  0  0  0999 V2000
   -4.0096   -1.6850    1.0191 O   0  0  0  0  0  0  0  0  0  0  0  0
    0.2756    2.3154   -0.2473 O   0  0  0  0  0  0  0  0  0  0  0  0
    0.2297   -2.2736    0.9761 O   0  0  0  0  0  0  0  0  0  0  0  0
   -2.3945   -3.3039    1.3382 O   0  0  0  0  0  0  0  0  0  0  0  0
    4.5240   -1.1967    4.9580 O   0  0  0  0  0  0  0  0  0  0  0  0
    6.2022   -0.7679    3.5178 O   0  0  0  0  0  0  0  0  0  0  0  0
   -2.5675    0.0422    0.5225 C   0  0  0  0  0  0  0  0  0  0  0  0
    0.2320    0.0585    0.3725 C   0  0  0  0  0  0  0  0  0  0  0  0
   -1.8293   -1.0854    0.7799 C   0  0  0  0  0  0  0  0  0  0  0  0
   -1.9527    1.2494    0.1727 C   0  0  0  0  0  0  0  0  0  0  0  0
   -0.5276    1.2538    0.0918 C   0  0  0  0  0  0  0  0  0  0  0  0
   -0.4545   -1.1196    0.7224 C   0  0  0  0  0  0  0  0  0  0  0  0
    1.7574    0.0006    0.2199 C   0  0  0  0  0  0  0  0  0  0  0  0
   -4.0062   -0.2974    0.6739 C   0  0  0  0  0  0  0  0  0  0  0  0
   -2.7356   -2.1781    1.0856 C   0  0  0  0  0  0  0  0  0  0  0  0
    2.5733    0.7178    1.2781 C   0  0  0  0  0  0  0  0  0  0  0  0
   -2.8702    2.4159   -0.0812 C   0  0  0  0  0  0  0  0  0  0  0  0
    3.9262    0.7773    1.3214 C   0  0  0  0  0  0  0  0  0  0  0  0
    4.6801    1.4905    2.4361 C   0  0  0  0  0  0  0  0  0  0  0  0
    4.4843    0.9170    3.8415 C   0  0  0  0  0  0  0  0  0  0  0  0
    4.8308    0.1919    0.2623 C   0  0  0  0  0  0  0  0  0  0  0  0
   -0.2692    3.5597   -0.6486 C   0  0  0  0  0  0  0  0  0  0  0  0
    5.1538   -0.4237    4.0412 C   0  0  0  0  0  0  0  0  0  0  0  0
  1 14  1  0  0  0  0
  1 15  1  0  0  0  0
  2 11  1  0  0  0  0
  2 22  1  0  0  0  0
  3 12  1  0  0  0  0
  4 15  2  0  0  0  0
  5 23  1  0  0  0  0
  6 23  2  0  0  0  0
  7  9  1  0  0  0  0
  7 10  2  0  0  0  0
  7 14  1  0  0  0  0
  8 11  2  0  0  0  0
  8 12  1  0  0  0  0
  8 13  1  0  0  0  0
  9 12  2  0  0  0  0
  9 15  1  0  0  0  0
 10 11  1  0  0  0  0
 10 17  1  0  0  0  0
 13 16  1  0  0  0  0
 16 18  2  0  0  0  0
 18 19  1  0  0  0  0
 18 21  1  0  0  0  0
 19 20  1  0  0  0  0
 20 23  1  0  0  0  0
M  END
