
 OpenBabel10141417503D

 15 14  0  0  1  0  0  0  0  0999 V2000
   -3.9611   -5.0515    0.4068 C   0  0  0  0  0  0  0  0  0  0  0  0
   -5.0082   -4.0417    0.8469 C   0  0  1  0  0  0  0  0  0  0  0  0
   -4.4932   -2.5895    0.6991 C   0  0  2  0  0  0  0  0  0  0  0  0
   -4.1525   -2.1903   -0.7589 C   0  0  1  0  0  0  0  0  0  0  0  0
   -3.5435   -0.7701   -0.8885 C   0  0  2  0  0  0  0  0  0  0  0  0
   -2.7525   -4.8663    0.5184 O   0  0  0  0  0  0  0  0  0  0  0  0
   -5.4916   -1.6632    1.1822 O   0  0  0  0  0  0  0  0  0  0  0  0
   -5.3756   -2.2181   -1.5454 O   0  0  0  0  0  0  0  0  0  0  0  0
   -3.2762   -0.4822   -2.2749 O   0  0  0  0  0  0  0  0  0  0  0  0
   -2.2500   -0.5426   -0.0935 C   0  0  0  0  0  0  0  0  0  0  0  0
   -1.1712   -1.3465   -0.5581 O   0  0  0  0  0  0  0  0  0  0  0  0
   -6.2535   -4.2836    0.1156 N   0  0  0  0  0  0  0  0  0  0  0  0
   -7.3478   -4.8851    0.6877 C   0  0  0  0  0  0  0  0  0  0  0  0
   -7.3572   -5.3306    1.8165 O   0  0  0  0  0  0  0  0  0  0  0  0
   -8.5645   -4.8961   -0.2068 C   0  0  0  0  0  0  0  0  0  0  0  0
  2 12  1  6  0  0  0
  2  1  1  0  0  0  0
  3  2  1  0  0  0  0
  3  7  1  1  0  0  0
  4  8  1  1  0  0  0
  4  3  1  0  0  0  0
  5 10  1  1  0  0  0
  5  9  1  0  0  0  0
  5  4  1  0  0  0  0
  6  1  2  0  0  0  0
 10 11  1  0  0  0  0
 12 13  1  0  0  0  0
 14 13  2  0  0  0  0
 15 13  1  0  0  0  0
M  END
