486
 OpenBabel10141417543D

 27 29  0  0  1  0  0  0  0  0999 V2000
    0.2524   -2.0087   -0.2312 O   0  0  0  0  0  0  0  0  0  0  0  0
    4.1610    2.6939   -0.4428 O   0  0  0  0  0  0  0  0  0  0  0  0
   -0.5666    2.6592    0.9037 O   0  0  0  0  0  0  0  0  0  0  0  0
    2.2286   -0.7990    0.6020 C   0  0  2  0  0  0  0  0  0  0  0  0
    1.5026    0.5620    0.4882 C   0  0  1  0  0  0  0  0  0  0  0  0
    1.6777   -1.8681   -0.3833 C   0  0  0  0  0  0  0  0  0  0  0  0
    3.7583   -0.6173    0.6601 C   0  0  0  0  0  0  0  0  0  0  0  0
    2.0881    1.5006   -0.5773 C   0  0  0  0  0  0  0  0  0  0  0  0
    0.0151    0.3653    0.3121 C   0  0  0  0  0  0  0  0  0  0  0  0
    4.3476    0.3083   -0.3918 C   0  0  0  0  0  0  0  0  0  0  0  0
   -0.4992   -0.8837   -0.0471 C   0  0  0  0  0  0  0  0  0  0  0  0
    3.5829    1.6020   -0.4330 C   0  0  0  0  0  0  0  0  0  0  0  0
    1.9643   -1.6598   -1.8756 C   0  0  0  0  0  0  0  0  0  0  0  0
    2.2200   -3.2632   -0.0101 C   0  0  0  0  0  0  0  0  0  0  0  0
   -0.9109    1.3985    0.4984 C   0  0  0  0  0  0  0  0  0  0  0  0
   -4.2943   -0.2412   -0.4338 C   0  0  0  0  0  0  0  0  0  0  0  0
   -2.8006   -0.0318   -0.1134 C   0  0  0  0  0  0  0  0  0  0  0  0
   -1.8794   -1.0837   -0.2283 C   0  0  0  0  0  0  0  0  0  0  0  0
   -2.2795    1.2102    0.2739 C   0  0  0  0  0  0  0  0  0  0  0  0
   -4.4932   -0.7909   -1.8921 C   0  0  0  0  0  0  0  0  0  0  0  0
   -4.9009   -1.2630    0.5617 C   0  0  0  0  0  0  0  0  0  0  0  0
   -5.1284    1.0532   -0.2718 C   0  0  0  0  0  0  0  0  0  0  0  0
   -3.9596    0.1270   -3.0074 C   0  0  0  0  0  0  0  0  0  0  0  0
   -4.1652   -0.4011   -4.4345 C   0  0  0  0  0  0  0  0  0  0  0  0
   -3.5376   -1.7583   -4.7732 C   0  0  0  0  0  0  0  0  0  0  0  0
   -2.0218   -1.8045   -4.5743 C   0  0  0  0  0  0  0  0  0  0  0  0
   -1.4348   -3.1628   -4.9352 C   0  0  0  0  0  0  0  0  0  0  0  0
  1  6  1  0  0  0  0
  1 11  1  0  0  0  0
  2 12  2  0  0  0  0
  3 15  1  0  0  0  0
  4  5  1  0  0  0  0
  4  6  1  1  0  0  0
  4  7  1  0  0  0  0
  5  8  1  6  0  0  0
  5  9  1  0  0  0  0
  6 13  1  0  0  0  0
  6 14  1  0  0  0  0
  7 10  1  0  0  0  0
  8 12  1  0  0  0  0
  9 11  1  0  0  0  0
  9 15  2  0  0  0  0
 10 12  1  0  0  0  0
 11 18  2  0  0  0  0
 15 19  1  0  0  0  0
 16 17  1  0  0  0  0
 16 20  1  0  0  0  0
 16 21  1  0  0  0  0
 16 22  1  0  0  0  0
 17 18  1  0  0  0  0
 17 19  2  0  0  0  0
 20 23  1  0  0  0  0
 23 24  1  0  0  0  0
 24 25  1  0  0  0  0
 25 26  1  0  0  0  0
 26 27  1  0  0  0  0
M  END
