1203
 OpenBabel10141417513D

 22 23  0  0  1  0  0  0  0  0999 V2000
   -0.2923    0.4482   -0.3988 O   0  0  0  0  0  0  0  0  0  0  0  0
    1.2430   -1.6178    0.6511 O   0  0  0  0  0  0  0  0  0  0  0  0
    3.7725    3.3336    0.6067 O   0  0  0  0  0  0  0  0  0  0  0  0
    4.9236    6.7413    1.4723 O   0  0  0  0  0  0  0  0  0  0  0  0
    2.5815    7.4784   -0.0979 N   0  0  0  0  0  0  0  0  0  0  0  0
    1.0858    0.3473   -0.7895 C   0  0  2  0  0  0  0  0  0  0  0  0
    1.5255   -1.1150   -0.6606 C   0  0  1  0  0  0  0  0  0  0  0  0
    1.9176    1.2726    0.1012 C   0  0  0  0  0  0  0  0  0  0  0  0
    3.0077   -1.2860   -0.9769 C   0  0  0  0  0  0  0  0  0  0  0  0
    3.4064    1.0666   -0.0311 C   0  0  0  0  0  0  0  0  0  0  0  0
    3.9052   -0.1996   -0.4146 C   0  0  0  0  0  0  0  0  0  0  0  0
    4.3129    2.0900    0.3547 C   0  0  0  0  0  0  0  0  0  0  0  0
    1.8905    7.8993   -1.3471 C   0  0  0  0  0  0  0  0  0  0  0  0
    5.2769   -0.4564   -0.3522 C   0  0  0  0  0  0  0  0  0  0  0  0
    3.9611    5.7416    1.1038 C   0  0  3  0  0  0  0  0  0  0  0  0
    3.2638    6.1654   -0.2082 C   0  0  0  0  0  0  0  0  0  0  0  0
    4.6838    4.3853    0.9590 C   0  0  0  0  0  0  0  0  0  0  0  0
    5.6713    1.7906    0.4404 C   0  0  0  0  0  0  0  0  0  0  0  0
    6.1570    0.5278    0.1046 C   0  0  0  0  0  0  0  0  0  0  0  0
    2.8855    8.0430   -2.5121 C   0  0  0  0  0  0  0  0  0  0  0  0
    0.7673    6.9181   -1.7343 C   0  0  0  0  0  0  0  0  0  0  0  0
    1.2434    9.2794   -1.1047 C   0  0  0  0  0  0  0  0  0  0  0  0
  3 12  1  0  0  0  0
  3 17  1  0  0  0  0
  4 15  1  0  0  0  0
  5 13  1  0  0  0  0
  5 16  1  0  0  0  0
  6  1  1  1  0  0  0
  6  7  1  0  0  0  0
  6  8  1  0  0  0  0
  7  9  1  0  0  0  0
  7  2  1  1  0  0  0
  8 10  1  0  0  0  0
  9 11  1  0  0  0  0
 10 11  2  0  0  0  0
 10 12  1  0  0  0  0
 11 14  1  0  0  0  0
 12 18  2  0  0  0  0
 13 20  1  0  0  0  0
 13 21  1  0  0  0  0
 13 22  1  0  0  0  0
 14 19  2  0  0  0  0
 15 16  1  0  0  0  0
 15 17  1  0  0  0  0
 18 19  1  0  0  0  0
M  END
