666
 OpenBabel10141417523D

 96103  0  0  1  0  0  0  0  0999 V2000
   10.2240    7.4784    7.8488 O   0  0  0  0  0  0  0  0  0  0  0  0
    8.2811   10.6599    8.6460 O   0  0  0  0  0  0  0  0  0  0  0  0
    7.1424    6.4476    4.7835 O   0  0  0  0  0  0  0  0  0  0  0  0
    6.6882    1.1785    3.5665 O   0  0  0  0  0  0  0  0  0  0  0  0
    9.0767   14.2108    9.7030 O   0  0  0  0  0  0  0  0  0  0  0  0
    2.5958    0.2452    6.4332 O   0  0  0  0  0  0  0  0  0  0  0  0
    0.9871    1.4457   -3.0153 O   0  0  0  0  0  0  0  0  0  0  0  0
    1.2211    6.7458   -3.4796 O   0  0  0  0  0  0  0  0  0  0  0  0
   -0.3090    4.9322   -0.6934 O   0  0  0  0  0  0  0  0  0  0  0  0
   -2.1618    3.1494    6.8840 O   0  0  0  0  0  0  0  0  0  0  0  0
   -1.6730    6.2601    2.5407 O   0  0  0  0  0  0  0  0  0  0  0  0
    0.3779    6.5975    5.1543 O   0  0  0  0  0  0  0  0  0  0  0  0
    1.9040    7.2862   12.6581 O   0  0  0  0  0  0  0  0  0  0  0  0
    8.2216    8.1979    8.5830 N   0  0  0  0  0  0  0  0  0  0  0  0
    7.8161    5.9341    6.4197 N   0  0  0  0  0  0  0  0  0  0  0  0
    8.2155   10.8176   10.9021 N   0  0  0  0  0  0  0  0  0  0  0  0
    6.3556    3.0382    4.8160 N   0  0  0  0  0  0  0  0  0  0  0  0
    7.3925    5.3310    3.0618 N   0  0  0  0  0  0  0  0  0  0  0  0
    3.9867    2.0203    5.6449 N   0  0  0  0  0  0  0  0  0  0  0  0
   10.1184   12.2365    9.3396 N   0  0  0  0  0  0  0  0  0  0  0  0
    0.0211    2.5336    7.3200 N   0  0  0  0  0  0  0  0  0  0  0  0
    1.4444    4.7141   -2.4676 N   0  0  0  0  0  0  0  0  0  0  0  0
    9.5165    5.6486    3.8790 N   0  0  0  0  0  0  0  0  0  0  0  0
    0.4693    2.2146   -1.0091 N   0  0  0  0  0  0  0  0  0  0  0  0
    0.4994    5.5641    1.2523 N   0  0  0  0  0  0  0  0  0  0  0  0
    8.6500    3.6623    4.3197 N   0  0  0  0  0  0  0  0  0  0  0  0
   -1.3980    5.2477    4.5002 N   0  0  0  0  0  0  0  0  0  0  0  0
    2.7548    4.7525    7.4233 N   0  0  0  0  0  0  0  0  0  0  0  0
    1.7559    1.5276    3.6051 N   0  0  0  0  0  0  0  0  0  0  0  0
    1.3165    3.5866    4.0529 N   0  0  0  0  0  0  0  0  0  0  0  0
    8.6172    8.5949    9.8841 C   0  0  3  0  0  0  0  0  0  0  0  0
    7.6671    7.8032   10.7612 C   0  0  0  0  0  0  0  0  0  0  0  0
    6.4516    7.5951    9.8781 C   0  0  0  0  0  0  0  0  0  0  0  0
    6.8257    8.3485    8.5910 C   0  0  0  0  0  0  0  0  0  0  0  0
    9.0418    7.7372    7.6038 C   0  0  0  0  0  0  0  0  0  0  0  0
    8.4884    7.3317    6.2409 C   0  0  3  0  0  0  0  0  0  0  0  0
    8.3083   10.1021    9.7510 C   0  0  0  0  0  0  0  0  0  0  0  0
    7.8176    8.4955    5.1710 C   0  0  0  0  0  0  0  0  0  0  0  0
    7.5804    8.1740    3.4876 C   0  0  0  0  0  0  0  0  0  0  0  0
    5.8958    4.3798    5.3467 C   0  0  3  0  0  0  0  0  0  0  0  0
    6.9414    5.6694    5.4376 C   0  0  0  0  0  0  0  0  0  0  0  0
    5.5636    4.1739    6.7477 C   0  0  0  0  0  0  0  0  0  0  0  0
    6.6792    6.9436    2.9284 C   0  0  0  0  0  0  0  0  0  0  0  0
    4.9985    5.4347    7.2429 C   0  0  0  0  0  0  0  0  0  0  0  0
    8.1987   12.2803   10.9087 C   0  0  0  0  0  0  0  0  0  0  0  0
    5.5441    6.7247    7.3434 C   0  0  0  0  0  0  0  0  0  0  0  0
    4.7283    5.2409    8.6456 C   0  0  0  0  0  0  0  0  0  0  0  0
    5.9089    1.8504    4.2491 C   0  0  0  0  0  0  0  0  0  0  0  0
    4.4487    1.5072    4.2135 C   0  0  3  0  0  0  0  0  0  0  0  0
    9.1216   12.9996    9.8961 C   0  0  0  0  0  0  0  0  0  0  0  0
    4.0168    2.0241    2.6434 C   0  0  0  0  0  0  0  0  0  0  0  0
    8.5413    4.7796    3.6613 C   0  0  0  0  0  0  0  0  0  0  0  0
    3.9625    3.4392    2.0871 C   0  0  0  0  0  0  0  0  0  0  0  0
    1.6033    2.4144    7.6250 C   0  0  3  0  0  0  0  0  0  0  0  0
    2.8399    1.4496    6.5702 C   0  0  0  0  0  0  0  0  0  0  0  0
    2.1666    3.4893   -2.4898 C   0  0  3  0  0  0  0  0  0  0  0  0
    2.7600    3.5451   -3.9036 C   0  0  0  0  0  0  0  0  0  0  0  0
    2.3611    2.5174    9.2205 C   0  0  0  0  0  0  0  0  0  0  0  0
    0.6918    5.6791    2.7721 C   0  0  3  0  0  0  0  0  0  0  0  0
    2.6882    5.0311   -4.3706 C   0  0  0  0  0  0  0  0  0  0  0  0
    0.3686    2.8611    0.3708 C   0  0  3  0  0  0  0  0  0  0  0  0
    3.1775    4.1507    1.2107 C   0  0  0  0  0  0  0  0  0  0  0  0
    5.1177    4.0515    2.2332 C   0  0  0  0  0  0  0  0  0  0  0  0
    2.2229    6.0295    3.7334 C   0  0  0  0  0  0  0  0  0  0  0  0
    1.1819    2.3366   -2.1779 C   0  0  0  0  0  0  0  0  0  0  0  0
   -0.7740    4.7055    5.7425 C   0  0  3  0  0  0  0  0  0  0  0  0
    1.7047    5.6275   -3.4336 C   0  0  0  0  0  0  0  0  0  0  0  0
    3.5601    5.3001    0.4923 C   0  0  0  0  0  0  0  0  0  0  0  0
    1.2167    1.9809    1.2654 C   0  0  0  0  0  0  0  0  0  0  0  0
    0.1914    4.5008    0.3649 C   0  0  0  0  0  0  0  0  0  0  0  0
    2.5058    5.9464    5.4942 C   0  0  0  0  0  0  0  0  0  0  0  0
   -0.9687    3.4395    6.7338 C   0  0  0  0  0  0  0  0  0  0  0  0
   -0.8365    5.7969    3.3315 C   0  0  0  0  0  0  0  0  0  0  0  0
    4.8561    5.6522    0.5162 C   0  0  0  0  0  0  0  0  0  0  0  0
    2.4257    3.6216   10.4283 C   0  0  0  0  0  0  0  0  0  0  0  0
    5.6330    4.9255    1.3194 C   0  0  0  0  0  0  0  0  0  0  0  0
    2.1665    6.7625    6.8682 C   0  0  0  0  0  0  0  0  0  0  0  0
   -0.2683    5.9571    6.2747 C   0  0  0  0  0  0  0  0  0  0  0  0
    2.5884    4.7293    6.0999 C   0  0  0  0  0  0  0  0  0  0  0  0
    2.1161    5.8143    7.9042 C   0  0  0  0  0  0  0  0  0  0  0  0
    1.0784    2.2089    2.6828 C   0  0  0  0  0  0  0  0  0  0  0  0
    2.7759    6.0458   -0.3496 C   0  0  0  0  0  0  0  0  0  0  0  0
    5.4142    6.6453   -0.2600 C   0  0  0  0  0  0  0  0  0  0  0  0
    1.3491    3.8200   11.2667 C   0  0  0  0  0  0  0  0  0  0  0  0
    3.4299    4.6048   10.7384 C   0  0  0  0  0  0  0  0  0  0  0  0
    1.3176    7.8689    7.2342 C   0  0  0  0  0  0  0  0  0  0  0  0
    3.2746    7.0242   -1.1701 C   0  0  0  0  0  0  0  0  0  0  0  0
    1.3299    5.9181    9.0440 C   0  0  0  0  0  0  0  0  0  0  0  0
    4.6107    7.3084   -1.1442 C   0  0  0  0  0  0  0  0  0  0  0  0
    0.2833    3.0029    3.4179 C   0  0  0  0  0  0  0  0  0  0  0  0
    0.4924    7.9099    8.4125 C   0  0  0  0  0  0  0  0  0  0  0  0
    1.2322    5.0281   12.0709 C   0  0  0  0  0  0  0  0  0  0  0  0
    3.2780    5.9024   11.3327 C   0  0  0  0  0  0  0  0  0  0  0  0
    0.5915    6.9902    9.3918 C   0  0  0  0  0  0  0  0  0  0  0  0
    2.1423    6.1005   12.0356 C   0  0  0  0  0  0  0  0  0  0  0  0
    1.9403    2.5105    4.3802 C   0  0  0  0  0  0  0  0  0  0  0  0
  1 35  2  0  0  0  0
  2 37  2  0  0  0  0
  3 41  2  0  0  0  0
  4 48  2  0  0  0  0
  5 50  2  0  0  0  0
  6 55  2  0  0  0  0
  7 65  2  0  0  0  0
  8 67  2  0  0  0  0
  9 70  2  0  0  0  0
 10 72  2  0  0  0  0
 11 73  2  0  0  0  0
 12 78  1  0  0  0  0
 13 95  1  0  0  0  0
 14 31  1  0  0  0  0
 14 34  1  0  0  0  0
 14 35  1  0  0  0  0
 15 36  1  0  0  0  0
 15 41  1  0  0  0  0
 16 37  1  0  0  0  0
 16 45  1  0  0  0  0
 17 40  1  0  0  0  0
 17 48  1  0  0  0  0
 18 43  1  0  0  0  0
 18 52  1  0  0  0  0
 19 49  1  0  0  0  0
 19 55  1  0  0  0  0
 20 50  1  0  0  0  0
 21 54  1  0  0  0  0
 21 72  1  0  0  0  0
 22 56  1  0  0  0  0
 22 67  1  0  0  0  0
 23 52  1  0  0  0  0
 24 61  1  0  0  0  0
 24 65  1  0  0  0  0
 25 59  1  0  0  0  0
 25 70  1  0  0  0  0
 26 52  2  0  0  0  0
 27 66  1  0  0  0  0
 27 73  1  0  0  0  0
 28 79  1  0  0  0  0
 28 80  1  0  0  0  0
 29 81  1  0  0  0  0
 29 96  2  0  0  0  0
 30 90  1  0  0  0  0
 30 96  1  0  0  0  0
 31 32  1  0  0  0  0
 31 37  1  0  0  0  0
 32 33  1  0  0  0  0
 33 34  1  0  0  0  0
 35 36  1  0  0  0  0
 36 38  1  0  0  0  0
 38 39  1  0  0  0  0
 39 43  1  0  0  0  0
 40 41  1  0  0  0  0
 40 42  1  0  0  0  0
 42 44  1  0  0  0  0
 44 46  1  0  0  0  0
 44 47  1  0  0  0  0
 45 50  1  0  0  0  0
 48 49  1  0  0  0  0
 49 51  1  0  0  0  0
 51 53  1  0  0  0  0
 53 62  2  0  0  0  0
 53 63  1  0  0  0  0
 54 55  1  0  0  0  0
 54 58  1  0  0  0  0
 56 57  1  0  0  0  0
 56 65  1  0  0  0  0
 57 60  1  0  0  0  0
 58 75  1  0  0  0  0
 59 64  1  0  0  0  0
 59 73  1  0  0  0  0
 60 67  1  0  0  0  0
 61 69  1  0  0  0  0
 61 70  1  0  0  0  0
 62 68  1  0  0  0  0
 63 76  2  0  0  0  0
 64 71  1  0  0  0  0
 66 72  1  0  0  0  0
 66 78  1  0  0  0  0
 68 74  1  0  0  0  0
 68 82  2  0  0  0  0
 69 81  1  0  0  0  0
 71 77  1  0  0  0  0
 71 79  2  0  0  0  0
 74 76  1  0  0  0  0
 74 83  2  0  0  0  0
 75 84  2  0  0  0  0
 75 85  1  0  0  0  0
 77 80  1  0  0  0  0
 77 86  2  0  0  0  0
 80 88  2  0  0  0  0
 81 90  2  0  0  0  0
 82 87  1  0  0  0  0
 83 89  1  0  0  0  0
 84 92  1  0  0  0  0
 85 93  2  0  0  0  0
 86 91  1  0  0  0  0
 87 89  2  0  0  0  0
 88 94  1  0  0  0  0
 91 94  2  0  0  0  0
 92 95  2  0  0  0  0
 93 95  1  0  0  0  0
M  END
