607
 OpenBabel10141417523D

 29 32  0  0  1  0  0  0  0  0999 V2000
   -1.0145    0.1062    1.7819 S   0  0  0  0  0  0  0  0  0  0  0  0
    2.1249   -1.2674   -0.5409 O   0  0  0  0  0  0  0  0  0  0  0  0
   -2.2179   -1.2566   -1.9855 O   0  0  0  0  0  0  0  0  0  0  0  0
   -2.1571    0.9341   -2.5034 O   0  0  0  0  0  0  0  0  0  0  0  0
   -0.1412   -2.8029    3.8832 O   0  0  0  0  0  0  0  0  0  0  0  0
    3.3951   -0.7096    3.5582 O   0  0  0  0  0  0  0  0  0  0  0  0
   -0.2179   -1.2400   -0.3443 N   0  0  0  0  0  0  0  0  0  0  0  0
    1.3805   -1.8770    2.5248 N   0  0  0  0  0  0  0  0  0  0  0  0
   -0.7208   -1.5267    1.0196 C   0  0  1  0  0  0  0  0  0  0  0  0
   -0.6549    1.0896    0.2554 C   0  0  0  0  0  0  0  0  0  0  0  0
   -0.5057    0.0853   -0.9148 C   0  0  2  0  0  0  0  0  0  0  0  0
    0.6267   -2.2456    1.3014 C   0  0  1  0  0  0  0  0  0  0  0  0
    1.0711   -1.5682   -0.0112 C   0  0  0  0  0  0  0  0  0  0  0  0
   -1.7750    2.1294    0.1199 C   0  0  0  0  0  0  0  0  0  0  0  0
    0.6687    1.8380    0.4847 C   0  0  0  0  0  0  0  0  0  0  0  0
   -1.7077   -0.0064   -1.8649 C   0  0  0  0  0  0  0  0  0  0  0  0
    0.9158   -2.1854    3.7887 C   0  0  0  0  0  0  0  0  0  0  0  0
    1.7235   -1.7109    4.9931 C   0  0  0  0  0  0  0  0  0  0  0  0
    1.2333   -1.9672    6.3332 C   0  0  0  0  0  0  0  0  0  0  0  0
    2.9235   -0.9639    4.8238 C   0  0  0  0  0  0  0  0  0  0  0  0
    1.9050   -1.3495    7.4239 C   0  0  0  0  0  0  0  0  0  0  0  0
    3.5560   -0.4049    5.9361 C   0  0  0  0  0  0  0  0  0  0  0  0
    0.1295   -2.7888    6.7016 C   0  0  0  0  0  0  0  0  0  0  0  0
    3.0487   -0.5884    7.2128 C   0  0  0  0  0  0  0  0  0  0  0  0
    1.4417   -1.4714    8.7431 C   0  0  0  0  0  0  0  0  0  0  0  0
   -0.3083   -2.9308    8.0254 C   0  0  0  0  0  0  0  0  0  0  0  0
    0.3336   -2.2502    9.0446 C   0  0  0  0  0  0  0  0  0  0  0  0
    4.8126   -0.6137    3.3649 C   0  0  0  0  0  0  0  0  0  0  0  0
    5.0555    0.3335    2.2048 C   0  0  0  0  0  0  0  0  0  0  0  0
  1 10  1  0  0  0  0
  2 13  2  0  0  0  0
  3 16  1  0  0  0  0
  4 16  2  0  0  0  0
  5 17  2  0  0  0  0
  6 20  1  0  0  0  0
  6 28  1  0  0  0  0
  7  9  1  0  0  0  0
  7 11  1  0  0  0  0
  7 13  1  0  0  0  0
  8 17  1  0  0  0  0
  9  1  1  1  0  0  0
  9 12  1  0  0  0  0
 10 11  1  0  0  0  0
 10 14  1  0  0  0  0
 10 15  1  0  0  0  0
 11 16  1  1  0  0  0
 12 13  1  0  0  0  0
 12  8  1  1  0  0  0
 17 18  1  0  0  0  0
 18 19  1  0  0  0  0
 18 20  2  0  0  0  0
 19 21  1  0  0  0  0
 19 23  2  0  0  0  0
 20 22  1  0  0  0  0
 21 24  1  0  0  0  0
 21 25  2  0  0  0  0
 22 24  2  0  0  0  0
 23 26  1  0  0  0  0
 25 27  1  0  0  0  0
 26 27  2  0  0  0  0
 28 29  1  0  0  0  0
M  END
