735
 OpenBabel10141417503D

 22 24  0  0  1  0  0  0  0  0999 V2000
    1.4866   -0.4452    0.7579 N   0  0  0  0  0  0  0  0  0  0  0  0
    0.9510   -1.8256    0.6610 C   0  0  0  0  0  0  0  0  0  0  0  0
   -0.3525   -2.1025    1.4145 C   0  0  0  0  0  0  0  0  0  0  0  0
   -1.6513   -1.8895    0.8589 C   0  0  0  0  0  0  0  0  0  0  0  0
   -2.7950   -2.2041    1.6454 C   0  0  0  0  0  0  0  0  0  0  0  0
    1.8066   -0.0938    2.1546 C   0  0  0  0  0  0  0  0  0  0  0  0
   -0.2503   -2.6179    2.7252 C   0  0  0  0  0  0  0  0  0  0  0  0
    2.7028   -0.3312   -0.0665 C   0  0  0  0  0  0  0  0  0  0  0  0
   -1.8893   -1.3823   -0.4393 C   0  0  0  0  0  0  0  0  0  0  0  0
   -2.6449   -2.7283    2.9349 C   0  0  0  0  0  0  0  0  0  0  0  0
   -1.3805   -2.9291    3.4748 C   0  0  0  0  0  0  0  0  0  0  0  0
   -4.0905   -1.9921    1.1441 C   0  0  0  0  0  0  0  0  0  0  0  0
    2.2758    1.3231    2.3126 C   0  0  0  0  0  0  0  0  0  0  0  0
   -3.1865   -1.1687   -0.9224 C   0  0  0  0  0  0  0  0  0  0  0  0
   -4.2855   -1.4657   -0.1293 C   0  0  0  0  0  0  0  0  0  0  0  0
    3.1694    1.7108    3.2485 C   0  0  0  0  0  0  0  0  0  0  0  0
    3.6382    3.0896    3.4215 C   0  0  0  0  0  0  0  0  0  0  0  0
    2.8548    4.2030    3.0828 C   0  0  0  0  0  0  0  0  0  0  0  0
    4.8985    3.3049    3.9990 C   0  0  0  0  0  0  0  0  0  0  0  0
    3.3354    5.4991    3.2876 C   0  0  0  0  0  0  0  0  0  0  0  0
    5.3766    4.6015    4.2030 C   0  0  0  0  0  0  0  0  0  0  0  0
    4.5977    5.7003    3.8446 C   0  0  0  0  0  0  0  0  0  0  0  0
  1  2  1  0  0  0  0
  1  6  1  0  0  0  0
  1  8  1  0  0  0  0
  2  3  1  0  0  0  0
  3  4  1  0  0  0  0
  3  7  2  0  0  0  0
  4  5  1  0  0  0  0
  4  9  2  0  0  0  0
  5 10  1  0  0  0  0
  5 12  2  0  0  0  0
  6 13  1  0  0  0  0
  7 11  1  0  0  0  0
  9 14  1  0  0  0  0
 10 11  2  0  0  0  0
 12 15  1  0  0  0  0
 13 16  2  3  0  0  0
 14 15  2  0  0  0  0
 16 17  1  0  0  0  0
 17 18  2  0  0  0  0
 17 19  1  0  0  0  0
 18 20  1  0  0  0  0
 19 21  2  0  0  0  0
 20 22  2  0  0  0  0
 21 22  1  0  0  0  0
M  END
