
 OpenBabel10141417483D

 26 31  0  0  0  0  0  0  0  0999 V2000
    1.0250   -1.2096    0.2103 C   0  0  0  0  0  0  0  0  0  0  0  0
    0.1646   -0.1347    0.2556 C   0  0  0  0  0  0  0  0  0  0  0  0
    2.7873    0.4680    0.3905 C   0  0  0  0  0  0  0  0  0  0  0  0
    1.8540    1.5236    0.3923 C   0  0  0  0  0  0  0  0  0  0  0  0
    0.5253    1.2044    0.3018 C   0  0  0  0  0  0  0  0  0  0  0  0
    2.3761   -0.8895    0.2828 C   0  0  0  0  0  0  0  0  0  0  0  0
   -1.5276    1.1049   -0.4390 C   0  0  1  0  0  0  0  0  0  0  0  0
   -3.0256    1.3977   -0.4170 C   0  0  2  0  0  0  0  0  0  0  0  0
   -3.7790    0.2140   -1.0978 C   0  0  0  0  0  0  0  0  0  0  0  0
   -3.3483   -1.2305   -0.6785 C   0  0  0  0  0  0  0  0  0  0  0  0
   -1.1788   -2.6591    0.0457 C   0  0  1  0  0  0  0  0  0  0  0  0
   -1.7580   -2.8514    1.4001 N   0  0  0  0  0  0  0  0  0  0  0  0
   -1.8063   -1.3840   -0.6139 C   0  0  2  0  0  0  0  0  0  0  0  0
   -1.3445   -1.2923   -1.9734 O   0  0  0  0  0  0  0  0  0  0  0  0
    0.4226   -2.5828   -0.0092 C   0  0  0  0  0  0  0  0  0  0  0  0
   -1.3016   -0.2337    0.2363 C   0  0  1  0  0  0  0  0  0  0  0  0
   -1.7780   -0.3652    1.7115 C   0  0  0  0  0  0  0  0  0  0  0  0
   -1.4325   -1.7393    2.3099 C   0  0  0  0  0  0  0  0  0  0  0  0
   -3.3127    2.5963   -1.1402 O   0  0  0  0  0  0  0  0  0  0  0  0
   -0.5945    2.0295    0.1987 O   0  0  0  0  0  0  0  0  0  0  0  0
    2.2466    2.8237    0.4501 O   0  0  0  0  0  0  0  0  0  0  0  0
   -1.4345   -4.1416    2.0368 C   0  0  0  0  0  0  0  0  0  0  0  0
   -1.9309   -5.3357    1.2253 C   0  0  0  0  0  0  0  0  0  0  0  0
   -3.4608   -5.4380    0.9755 C   0  0  0  0  0  0  0  0  0  0  0  0
   -2.0603   -6.6849    1.9845 C   0  0  0  0  0  0  0  0  0  0  0  0
   -3.3065   -6.9652    1.1183 C   0  0  0  0  0  0  0  0  0  0  0  0
  1  6  2  0  0  0  0
  2  1  1  0  0  0  0
  3  4  2  0  0  0  0
  3  6  1  0  0  0  0
  4  5  1  0  0  0  0
  4 21  1  0  0  0  0
  5  2  2  0  0  0  0
  5 20  1  0  0  0  0
  7  8  1  0  0  0  0
  7 20  1  6  0  0  0
  8  9  1  0  0  0  0
  8 19  1  6  0  0  0
  9 10  1  0  0  0  0
 10 13  1  0  0  0  0
 11 12  1  1  0  0  0
 11 15  1  0  0  0  0
 12 18  1  0  0  0  0
 12 22  1  0  0  0  0
 13 11  1  0  0  0  0
 13 14  1  1  0  0  0
 15  1  1  0  0  0  0
 16  2  1  1  0  0  0
 16 13  1  0  0  0  0
 16  7  1  0  0  0  0
 16 17  1  0  0  0  0
 17 18  1  0  0  0  0
 22 23  1  0  0  0  0
 23 24  1  0  0  0  0
 23 25  1  0  0  0  0
 25 26  1  0  0  0  0
 26 24  1  0  0  0  0
M  END
