779
 OpenBabel10141417493D

 17 18  0  0  0  0  0  0  0  0999 V2000
    0.5847   -0.1255   -0.0588 O   0  0  0  0  0  0  0  0  0  0  0  0
    2.6854    3.5908   -0.0209 O   0  0  0  0  0  0  0  0  0  0  0  0
    0.6456    2.7307    0.0056 O   0  0  0  0  0  0  0  0  0  0  0  0
    4.6373   -0.0074   -0.0223 N   0  0  0  0  0  0  0  0  0  0  0  0
    4.7292   -2.4047    0.0185 N   0  0  0  0  0  0  0  0  0  0  0  0
    3.9943   -1.2645   -0.0025 C   0  0  0  0  0  0  0  0  0  0  0  0
    2.5979   -1.3137   -0.0133 C   0  0  0  0  0  0  0  0  0  0  0  0
    6.1047   -0.0223   -0.0171 C   0  0  0  0  0  0  0  0  0  0  0  0
    3.8852    1.1541   -0.0108 C   0  0  0  0  0  0  0  0  0  0  0  0
    2.5438    1.2324   -0.0161 C   0  0  0  0  0  0  0  0  0  0  0  0
    1.8092   -0.0603   -0.0314 C   0  0  0  0  0  0  0  0  0  0  0  0
    1.9492   -2.5513   -0.0118 C   0  0  0  0  0  0  0  0  0  0  0  0
    4.0918   -3.6016    0.0203 C   0  0  0  0  0  0  0  0  0  0  0  0
    6.6487   -0.0248    1.4042 C   0  0  0  0  0  0  0  0  0  0  0  0
    2.7079   -3.7146    0.0027 C   0  0  0  0  0  0  0  0  0  0  0  0
    1.8470    2.5335   -0.0092 C   0  0  0  0  0  0  0  0  0  0  0  0
    4.9491   -4.8315    0.0263 C   0  0  0  0  0  0  0  0  0  0  0  0
  1 11  2  0  0  0  0
  2 16  1  0  0  0  0
  3 16  2  0  0  0  0
  4  6  1  0  0  0  0
  4  8  1  0  0  0  0
  4  9  1  0  0  0  0
  5  6  1  0  0  0  0
  5 13  2  0  0  0  0
  6  7  2  0  0  0  0
  7 11  1  0  0  0  0
  7 12  1  0  0  0  0
  8 14  1  0  0  0  0
  9 10  2  0  0  0  0
 10 11  1  0  0  0  0
 10 16  1  0  0  0  0
 12 15  2  0  0  0  0
 13 15  1  0  0  0  0
 13 17  1  0  0  0  0
M  END
