1183
 OpenBabel10141417503D

 24 28  0  0  1  0  0  0  0  0999 V2000
    1.4489    1.3673   -2.9243 O   0  0  0  0  0  0  0  0  0  0  0  0
    5.1856    0.2670   -1.8217 O   0  0  0  0  0  0  0  0  0  0  0  0
    1.4027   -1.6146   -3.8503 O   0  0  0  0  0  0  0  0  0  0  0  0
    0.5453    3.9024   -1.6863 O   0  0  0  0  0  0  0  0  0  0  0  0
    6.2281    1.0053   -5.2684 N   0  0  0  0  0  0  0  0  0  0  0  0
    3.6590    0.9664   -3.6404 C   0  0  1  0  0  0  0  0  0  0  0  0
    4.9904    0.3810   -3.2423 C   0  0  1  0  0  0  0  0  0  0  0  0
    5.9206    1.4779   -3.9076 C   0  0  1  0  0  0  0  0  0  0  0  0
    2.4729    0.3541   -2.9090 C   0  0  2  0  0  0  0  0  0  0  0  0
    3.5573    1.0158   -5.2283 C   0  0  0  0  0  0  0  0  0  0  0  0
    3.5339    2.3185   -2.9995 C   0  0  0  0  0  0  0  0  0  0  0  0
    5.0020   -1.1013   -3.7064 C   0  0  0  0  0  0  0  0  0  0  0  0
    6.0486    2.7309   -2.9511 C   0  0  0  0  0  0  0  0  0  0  0  0
    4.9349    1.0020   -6.0584 C   0  0  0  0  0  0  0  0  0  0  0  0
    4.5870    3.1819   -2.6339 C   0  0  0  0  0  0  0  0  0  0  0  0
    3.7378   -1.8712   -3.2352 C   0  0  0  0  0  0  0  0  0  0  0  0
    2.4210   -1.0915   -3.4148 C   0  0  0  0  0  0  0  0  0  0  0  0
    2.2077    2.5012   -2.6623 C   0  0  0  0  0  0  0  0  0  0  0  0
    7.3169    1.7516   -5.9016 C   0  0  0  0  0  0  0  0  0  0  0  0
    4.2096    4.3491   -1.9790 C   0  0  0  0  0  0  0  0  0  0  0  0
    1.8363    3.6618   -2.0352 C   0  0  0  0  0  0  0  0  0  0  0  0
    2.8355    4.5929   -1.7030 C   0  0  0  0  0  0  0  0  0  0  0  0
    7.6400    1.2548   -7.2832 C   0  0  0  0  0  0  0  0  0  0  0  0
    7.9814    2.0504   -8.3068 C   0  0  0  0  0  0  0  0  0  0  0  0
  1 18  1  0  0  0  0
  3 17  2  0  0  0  0
  4 21  1  0  0  0  0
  5 14  1  0  0  0  0
  5 19  1  0  0  0  0
  6  7  1  0  0  0  0
  6  9  1  0  0  0  0
  6 10  1  1  0  0  0
  6 11  1  0  0  0  0
  7  8  1  0  0  0  0
  7 12  1  0  0  0  0
  7  2  1  1  0  0  0
  8  5  1  1  0  0  0
  8 13  1  0  0  0  0
  9  1  1  6  0  0  0
  9 17  1  0  0  0  0
 10 14  1  0  0  0  0
 11 15  2  0  0  0  0
 11 18  1  0  0  0  0
 12 16  1  0  0  0  0
 13 15  1  0  0  0  0
 15 20  1  0  0  0  0
 16 17  1  0  0  0  0
 18 21  2  0  0  0  0
 19 23  1  0  0  0  0
 20 22  2  0  0  0  0
 21 22  1  0  0  0  0
 23 24  2  0  0  0  0
M  END
