704
 OpenBabel10141417503D

 25 30  0  0  1  0  0  0  0  0999 V2000
    1.5859    1.2999   -2.7540 O   0  0  0  0  0  0  0  0  0  0  0  0
    5.5328    0.5608   -2.1596 O   0  0  0  0  0  0  0  0  0  0  0  0
    1.7211   -1.6431   -3.8089 O   0  0  0  0  0  0  0  0  0  0  0  0
    0.6104    3.7063   -1.3210 O   0  0  0  0  0  0  0  0  0  0  0  0
    5.9964    1.7021   -5.7377 N   0  0  0  0  0  0  0  0  0  0  0  0
    3.7206    1.1316   -3.7478 C   0  0  1  0  0  0  0  0  0  0  0  0
    5.1473    0.6715   -3.5434 C   0  0  1  0  0  0  0  0  0  0  0  0
    5.8782    1.8816   -4.2827 C   0  0  1  0  0  0  0  0  0  0  0  0
    2.6938    0.3926   -2.9012 C   0  0  2  0  0  0  0  0  0  0  0  0
    3.4200    1.2456   -5.3131 C   0  0  0  0  0  0  0  0  0  0  0  0
    3.5486    2.4472   -3.0355 C   0  0  0  0  0  0  0  0  0  0  0  0
    5.2421   -0.8038   -4.0109 C   0  0  0  0  0  0  0  0  0  0  0  0
    4.6963    1.1969   -6.2915 C   0  0  0  0  0  0  0  0  0  0  0  0
    5.9914    3.1241   -3.3025 C   0  0  0  0  0  0  0  0  0  0  0  0
    4.5492    3.4079   -2.7782 C   0  0  0  0  0  0  0  0  0  0  0  0
    7.1747    0.9851   -6.1935 C   0  0  0  0  0  0  0  0  0  0  0  0
    4.1159   -1.6900   -3.4095 C   0  0  0  0  0  0  0  0  0  0  0  0
    8.4084    1.7264   -5.7663 C   0  0  0  0  0  0  0  0  0  0  0  0
    2.7234   -1.0367   -3.4450 C   0  0  0  0  0  0  0  0  0  0  0  0
    2.2628    2.4930   -2.5372 C   0  0  0  0  0  0  0  0  0  0  0  0
    9.7708    1.1390   -6.0355 C   0  0  0  0  0  0  0  0  0  0  0  0
    9.2558    1.2190   -4.6257 C   0  0  0  0  0  0  0  0  0  0  0  0
    4.1477    4.5199   -2.0475 C   0  0  0  0  0  0  0  0  0  0  0  0
    1.8650    3.5992   -1.8319 C   0  0  0  0  0  0  0  0  0  0  0  0
    2.8039    4.6188   -1.5951 C   0  0  0  0  0  0  0  0  0  0  0  0
  1 20  1  0  0  0  0
  3 19  2  0  0  0  0
  4 24  1  0  0  0  0
  5 13  1  0  0  0  0
  5 16  1  0  0  0  0
  6  7  1  0  0  0  0
  6  9  1  0  0  0  0
  6 10  1  1  0  0  0
  6 11  1  0  0  0  0
  7  8  1  0  0  0  0
  7 12  1  0  0  0  0
  7  2  1  1  0  0  0
  8  5  1  1  0  0  0
  8 14  1  0  0  0  0
  9  1  1  6  0  0  0
  9 19  1  0  0  0  0
 10 13  1  0  0  0  0
 11 15  2  0  0  0  0
 11 20  1  0  0  0  0
 12 17  1  0  0  0  0
 14 15  1  0  0  0  0
 15 23  1  0  0  0  0
 16 18  1  0  0  0  0
 17 19  1  0  0  0  0
 18 21  1  0  0  0  0
 18 22  1  0  0  0  0
 20 24  2  0  0  0  0
 21 22  1  0  0  0  0
 23 25  2  0  0  0  0
 24 25  1  0  0  0  0
M  END
