984
 OpenBabel10141417493D

 30 34  0  0  1  0  0  0  0  0999 V2000
   -5.2826    8.2718   -7.1945 O   0  0  0  0  0  0  0  0  0  0  0  0
   -7.4817    4.8474    2.1080 O   0  0  0  0  0  0  0  0  0  0  0  0
   -3.1393    7.4192   -7.0185 O   0  0  0  0  0  0  0  0  0  0  0  0
   -6.8592    8.6754   -4.7298 C   0  0  2  0  0  0  0  0  0  0  0  0
   -5.3166    8.6775   -4.7341 C   0  0  2  0  0  0  0  0  0  0  0  0
   -7.5351    8.1105   -3.4690 C   0  0  1  0  0  0  0  0  0  0  0  0
   -6.9454    6.7071   -3.1359 C   0  0  2  0  0  0  0  0  0  0  0  0
   -4.8300    7.2464   -4.4789 C   0  0  0  0  0  0  0  0  0  0  0  0
   -5.0433    9.2485   -6.1528 C   0  0  2  0  0  0  0  0  0  0  0  0
   -7.2401   10.0502   -5.2731 C   0  0  0  0  0  0  0  0  0  0  0  0
   -5.4013    6.6476   -3.1910 C   0  0  0  0  0  0  0  0  0  0  0  0
   -7.5626    6.1788   -1.8201 C   0  0  2  0  0  0  0  0  0  0  0  0
   -6.1021   10.3848   -6.2678 C   0  0  0  0  0  0  0  0  0  0  0  0
   -7.6797    9.0506   -2.2558 C   0  0  0  0  0  0  0  0  0  0  0  0
   -4.6665    9.6331   -3.7092 C   0  0  0  0  0  0  0  0  0  0  0  0
   -7.0655    8.5537   -0.9454 C   0  0  0  0  0  0  0  0  0  0  0  0
   -7.3035    7.0972   -0.6476 C   0  0  0  0  0  0  0  0  0  0  0  0
   -7.1392    4.7362   -1.4996 C   0  0  0  0  0  0  0  0  0  0  0  0
   -7.7756    4.2568   -0.2014 C   0  0  0  0  0  0  0  0  0  0  0  0
   -7.2605    6.6440    0.6176 C   0  0  0  0  0  0  0  0  0  0  0  0
   -7.4839    5.2109    0.9340 C   0  0  0  0  0  0  0  0  0  0  0  0
   -4.2567    7.4441   -7.5431 C   0  0  0  0  0  0  0  0  0  0  0  0
   -4.6571    6.5401   -8.6829 C   0  0  0  0  0  0  0  0  0  0  0  0
   -4.2416    7.1163  -10.0318 C   0  0  0  0  0  0  0  0  0  0  0  0
   -4.9021    8.4378  -10.3414 C   0  0  0  0  0  0  0  0  0  0  0  0
   -6.1549    8.4626  -10.9656 C   0  0  0  0  0  0  0  0  0  0  0  0
   -4.3028    9.6508   -9.9707 C   0  0  0  0  0  0  0  0  0  0  0  0
   -6.7986    9.6748  -11.2139 C   0  0  0  0  0  0  0  0  0  0  0  0
   -4.9476   10.8634  -10.2232 C   0  0  0  0  0  0  0  0  0  0  0  0
   -6.1951   10.8749  -10.8443 C   0  0  0  0  0  0  0  0  0  0  0  0
  1 22  1  0  0  0  0
  2 21  2  0  0  0  0
  3 22  2  0  0  0  0
  4  5  1  0  0  0  0
  4  6  1  0  0  0  0
  4 10  1  6  0  0  0
  5  8  1  0  0  0  0
  5  9  1  0  0  0  0
  5 15  1  6  0  0  0
  6  7  1  0  0  0  0
  6 14  1  1  0  0  0
  7 11  1  6  0  0  0
  7 12  1  0  0  0  0
  8 11  1  0  0  0  0
  9 13  1  0  0  0  0
  9  1  1  6  0  0  0
 10 13  1  0  0  0  0
 12 17  1  1  0  0  0
 12 18  1  0  0  0  0
 14 16  1  0  0  0  0
 16 17  1  0  0  0  0
 17 20  2  0  0  0  0
 18 19  1  0  0  0  0
 19 21  1  0  0  0  0
 20 21  1  0  0  0  0
 22 23  1  0  0  0  0
 23 24  1  0  0  0  0
 24 25  1  0  0  0  0
 25 26  2  0  0  0  0
 25 27  1  0  0  0  0
 26 28  1  0  0  0  0
 27 29  2  0  0  0  0
 28 30  2  0  0  0  0
 29 30  1  0  0  0  0
M  END
