952
 OpenBabel10141417503D

 23 25  0  0  0  0  0  0  0  0999 V2000
    1.0218   -1.1894   -0.4768 S   0  0  0  0  0  0  0  0  0  0  0  0
    0.5387   -2.3534    0.2358 O   0  0  0  0  0  0  0  0  0  0  0  0
    0.5562    0.1433   -0.1445 O   0  0  0  0  0  0  0  0  0  0  0  0
    8.6538    5.3402    0.4633 N   0  0  0  0  0  0  0  0  0  0  0  0
    8.9639   -0.9654    1.1366 N   0  0  0  0  0  0  0  0  0  0  0  0
    0.6467   -1.4658   -2.0915 N   0  0  0  0  0  0  0  0  0  0  0  0
    7.7781    2.5221    0.7562 C   0  0  0  0  0  0  0  0  0  0  0  0
    8.3394    3.3222    1.9399 C   0  0  0  0  0  0  0  0  0  0  0  0
    8.3618    3.0570   -0.5599 C   0  0  0  0  0  0  0  0  0  0  0  0
    8.1291    4.8247    1.7339 C   0  0  0  0  0  0  0  0  0  0  0  0
    8.1493    4.5687   -0.6788 C   0  0  0  0  0  0  0  0  0  0  0  0
    7.9912    1.0346    0.9130 C   0  0  0  0  0  0  0  0  0  0  0  0
    6.9740    0.0200    0.9691 C   0  0  0  0  0  0  0  0  0  0  0  0
    9.2032    0.3777    1.0309 C   0  0  0  0  0  0  0  0  0  0  0  0
    7.6132   -1.2132    1.0957 C   0  0  0  0  0  0  0  0  0  0  0  0
   10.1114    5.4414    0.4647 C   0  0  0  0  0  0  0  0  0  0  0  0
    5.5628    0.0353    0.9241 C   0  0  0  0  0  0  0  0  0  0  0  0
    4.8393   -1.1690    1.0030 C   0  0  0  0  0  0  0  0  0  0  0  0
    6.9209   -2.4276    1.1646 C   0  0  0  0  0  0  0  0  0  0  0  0
    3.3305   -1.1474    0.9582 C   0  0  0  0  0  0  0  0  0  0  0  0
    5.5245   -2.3838    1.1104 C   0  0  0  0  0  0  0  0  0  0  0  0
    2.8094   -1.2017   -0.4720 C   0  0  0  0  0  0  0  0  0  0  0  0
    0.8001   -0.3759   -3.0533 C   0  0  0  0  0  0  0  0  0  0  0  0
  1  2  2  0  0  0  0
  1  3  2  0  0  0  0
  1  6  1  0  0  0  0
  1 22  1  0  0  0  0
  4 10  1  0  0  0  0
  4 11  1  0  0  0  0
  4 16  1  0  0  0  0
  5 14  1  0  0  0  0
  5 15  1  0  0  0  0
  6 23  1  0  0  0  0
  7  8  1  0  0  0  0
  7  9  1  0  0  0  0
  7 12  1  0  0  0  0
  8 10  1  0  0  0  0
  9 11  1  0  0  0  0
 12 13  1  0  0  0  0
 12 14  2  0  0  0  0
 13 15  2  0  0  0  0
 13 17  1  0  0  0  0
 15 19  1  0  0  0  0
 17 18  2  0  0  0  0
 18 20  1  0  0  0  0
 18 21  1  0  0  0  0
 19 21  2  0  0  0  0
 20 22  1  0  0  0  0
M  END
