LS-7662
 OpenBabel10141417503D

 47 50  0  0  0  0  0  0  0  0999 V2000
   -5.2445   -0.1667    1.7376 C   0  0  0  0  0  0  0  0  0  0  0  0
   -4.8895   -1.3221    2.3211 C   0  0  0  0  0  0  0  0  0  0  0  0
   -4.1065   -1.4785    3.5498 C   0  0  0  0  0  0  0  0  0  0  0  0
   -3.2185   -0.5283    3.9117 C   0  0  0  0  0  0  0  0  0  0  0  0
   -6.1419   -0.7438   -0.5575 C   0  0  0  0  0  0  0  0  0  0  0  0
   -5.3971   -0.0379    0.3033 C   0  0  0  0  0  0  0  0  0  0  0  0
   -5.9401   -3.5025   -1.5553 O   0  0  0  0  0  0  0  0  0  0  0  0
   -6.6735   -3.2505   -0.3322 C   0  0  1  0  0  0  0  0  0  0  0  0
   -7.1729   -1.7960   -0.2745 C   0  0  0  0  0  0  0  0  0  0  0  0
   -4.0019   -4.9908    0.2730 C   0  0  0  0  0  0  0  0  0  0  0  0
   -3.8084   -3.8604   -0.4251 C   0  0  0  0  0  0  0  0  0  0  0  0
   -4.5879   -3.5528   -1.6349 C   0  0  0  0  0  0  0  0  0  0  0  0
   -1.1600   -5.2875    3.0203 C   0  0  0  0  0  0  0  0  0  0  0  0
   -2.2730   -4.6454    2.2363 C   0  0  2  0  0  0  0  0  0  0  0  0
   -3.2637   -5.4841    1.4459 C   0  0  2  0  0  0  0  0  0  0  0  0
    1.0212   -5.0285    1.5406 C   0  0  0  0  0  0  0  0  0  0  0  0
    0.2494   -4.7086    2.8327 C   0  0  1  0  0  0  0  0  0  0  0  0
   -0.2961   -3.4830    0.1369 O   0  0  0  0  0  0  0  0  0  0  0  0
    0.3477   -4.7451    0.1877 C   0  0  2  0  0  0  0  0  0  0  0  0
   -1.5297   -0.4611    2.1965 C   0  0  0  0  0  0  0  0  0  0  0  0
   -0.2010   -0.3901    1.5015 C   0  0  1  0  0  0  0  0  0  0  0  0
   -0.2837   -1.0756    0.1101 C   0  0  0  0  0  0  0  0  0  0  0  0
    0.5712   -2.3529   -0.0010 C   0  0  1  0  0  0  0  0  0  0  0  0
   -1.8230   -0.6860    3.4920 C   0  0  0  0  0  0  0  0  0  0  0  0
   -7.8650   -4.2041   -0.3264 C   0  0  0  0  0  0  0  0  0  0  0  0
   -4.0012   -3.3695   -2.6964 O   0  0  0  0  0  0  0  0  0  0  0  0
   -3.5722   -4.9969    2.7544 O   0  0  0  0  0  0  0  0  0  0  0  0
    0.2640   -3.3096    3.1121 O   0  0  0  0  0  0  0  0  0  0  0  0
   -0.6762   -5.7241    0.0311 O   0  0  0  0  0  0  0  0  0  0  0  0
    1.3411   -2.4445   -1.3250 C   0  0  1  0  0  0  0  0  0  0  0  0
    2.1441   -3.7467   -1.3651 C   0  0  2  0  0  0  0  0  0  0  0  0
    1.3104   -4.9695   -0.9942 C   0  0  0  0  0  0  0  0  0  0  0  0
    0.4454   -2.3670   -2.5401 C   0  0  0  0  0  0  0  0  0  0  0  0
    3.2476   -3.6322   -0.4593 O   0  0  0  0  0  0  0  0  0  0  0  0
    0.2880   -1.1131   -3.0033 O   0  0  0  0  0  0  0  0  0  0  0  0
   -0.0901   -3.3039   -3.1181 O   0  0  0  0  0  0  0  0  0  0  0  0
   -0.0072    1.0302    1.3884 O   0  0  0  0  0  0  0  0  0  0  0  0
    1.1946    1.4677    0.7599 C   0  0  3  0  0  0  0  0  0  0  0  0
    2.3713    1.0330    1.4441 O   0  0  0  0  0  0  0  0  0  0  0  0
    2.6576    1.6731    2.6967 C   0  0  1  0  0  0  0  0  0  0  0  0
    2.5728    3.2089    2.6117 C   0  0  2  0  0  0  0  0  0  0  0  0
    1.2998    3.7305    1.9157 C   0  0  1  0  0  0  0  0  0  0  0  0
    1.1573    3.0049    0.5647 C   0  0  2  0  0  0  0  0  0  0  0  0
   -0.0289    3.4357   -0.1226 O   0  0  0  0  0  0  0  0  0  0  0  0
    0.0731    3.6353    2.7348 N   0  0  0  0  0  0  0  0  0  0  0  0
    3.7074    3.6869    1.8541 O   0  0  0  0  0  0  0  0  0  0  0  0
    1.8894    1.0701    3.8661 C   0  0  0  0  0  0  0  0  0  0  0  0
  1  2  2  0  0  0  0
  1  6  1  0  0  0  0
  2  3  1  0  0  0  0
  3  4  2  0  0  0  0
  4 24  1  0  0  0  0
  5  6  2  0  0  0  0
  5  9  1  0  0  0  0
  7  8  1  0  0  0  0
  7 12  1  0  0  0  0
  8  9  1  0  0  0  0
  8 25  1  6  0  0  0
 10 11  2  0  0  0  0
 11 12  1  0  0  0  0
 12 26  2  0  0  0  0
 13 17  1  0  0  0  0
 14 13  1  6  0  0  0
 14 15  1  0  0  0  0
 14 27  1  0  0  0  0
 15 10  1  1  0  0  0
 15 27  1  0  0  0  0
 16 17  1  0  0  0  0
 16 19  1  0  0  0  0
 17 28  1  6  0  0  0
 18 19  1  0  0  0  0
 18 23  1  0  0  0  0
 19 32  1  0  0  0  0
 19 29  1  6  0  0  0
 20 21  1  0  0  0  0
 20 24  2  0  0  0  0
 21 22  1  0  0  0  0
 21 37  1  6  0  0  0
 23 22  1  1  0  0  0
 23 30  1  0  0  0  0
 30 31  1  0  0  0  0
 30 33  1  6  0  0  0
 31 32  1  0  0  0  0
 31 34  1  1  0  0  0
 33 35  1  0  0  0  0
 33 36  2  0  0  0  0
 37 38  1  0  0  0  0
 38 39  1  0  0  0  0
 38 43  1  0  0  0  0
 39 40  1  0  0  0  0
 40 41  1  0  0  0  0
 40 47  1  1  0  0  0
 41 42  1  0  0  0  0
 41 46  1  6  0  0  0
 42 43  1  0  0  0  0
 42 45  1  1  0  0  0
 43 44  1  1  0  0  0
M  END
