
 OpenBabel10141417483D

 29 32  0  0  1  0  0  0  0  0999 V2000
    3.0122   -3.0182    2.3217 F   0  0  0  0  0  0  0  0  0  0  0  0
   11.0310    7.7747   -9.2016 F   0  0  0  0  0  0  0  0  0  0  0  0
    5.7321    1.4842    0.7359 O   0  0  0  0  0  0  0  0  0  0  0  0
   11.6514    6.5170   -3.9009 O   0  0  0  0  0  0  0  0  0  0  0  0
    7.3056    3.8380    0.6075 O   0  0  0  0  0  0  0  0  0  0  0  0
   13.0553    5.0084   -2.0113 O   0  0  0  0  0  0  0  0  0  0  0  0
    9.6184    3.8585   -1.1030 N   0  0  0  0  0  0  0  0  0  0  0  0
    7.1688    1.3992    0.5911 C   0  0  3  0  0  0  0  0  0  0  0  0
   11.0737    5.2788   -3.4129 C   0  0  3  0  0  0  0  0  0  0  0  0
    7.6457    2.6661   -0.1601 C   0  0  3  0  0  0  0  0  0  0  0  0
   11.6206    5.0967   -1.9776 C   0  0  3  0  0  0  0  0  0  0  0  0
    7.5639    0.1177   -0.1462 C   0  0  0  0  0  0  0  0  0  0  0  0
   11.4287    4.1243   -4.3536 C   0  0  0  0  0  0  0  0  0  0  0  0
    9.1750    2.6646   -0.3673 C   0  0  0  0  0  0  0  0  0  0  0  0
   11.0800    3.8693   -1.2224 C   0  0  0  0  0  0  0  0  0  0  0  0
    7.1562   -1.0785    0.6904 C   0  0  0  0  0  0  0  0  0  0  0  0
   10.7975    4.3854   -5.7125 C   0  0  0  0  0  0  0  0  0  0  0  0
    5.7348   -0.9288    1.1256 C   0  0  0  0  0  0  0  0  0  0  0  0
   11.0720    5.7930   -6.1560 C   0  0  0  0  0  0  0  0  0  0  0  0
    5.1159    0.3273    1.1484 C   0  0  0  0  0  0  0  0  0  0  0  0
   11.4733    6.7675   -5.2320 C   0  0  0  0  0  0  0  0  0  0  0  0
    5.0157   -2.0593    1.5397 C   0  0  0  0  0  0  0  0  0  0  0  0
   10.9101    6.1469   -7.4989 C   0  0  0  0  0  0  0  0  0  0  0  0
    3.7840    0.4468    1.5552 C   0  0  0  0  0  0  0  0  0  0  0  0
   11.7588    8.0672   -5.6636 C   0  0  0  0  0  0  0  0  0  0  0  0
    3.6958   -1.9277    1.9450 C   0  0  0  0  0  0  0  0  0  0  0  0
   11.1812    7.4486   -7.9150 C   0  0  0  0  0  0  0  0  0  0  0  0
    3.0740   -0.6887    1.9608 C   0  0  0  0  0  0  0  0  0  0  0  0
   11.6117    8.4099   -7.0079 C   0  0  0  0  0  0  0  0  0  0  0  0
  1 26  1  0  0  0  0
  2 27  1  0  0  0  0
  3  8  1  0  0  0  0
  3 20  1  0  0  0  0
  4  9  1  0  0  0  0
  4 21  1  0  0  0  0
  5 10  1  0  0  0  0
  6 11  1  0  0  0  0
  7 14  1  0  0  0  0
  7 15  1  0  0  0  0
  8 10  1  0  0  0  0
  8 12  1  0  0  0  0
  9 11  1  0  0  0  0
  9 13  1  0  0  0  0
 10 14  1  0  0  0  0
 11 15  1  0  0  0  0
 12 16  1  0  0  0  0
 13 17  1  0  0  0  0
 16 18  1  0  0  0  0
 17 19  1  0  0  0  0
 18 20  2  0  0  0  0
 18 22  1  0  0  0  0
 19 21  2  0  0  0  0
 19 23  1  0  0  0  0
 20 24  1  0  0  0  0
 21 25  1  0  0  0  0
 22 26  2  0  0  0  0
 23 27  2  0  0  0  0
 24 28  2  0  0  0  0
 25 29  2  0  0  0  0
 26 28  1  0  0  0  0
 27 29  1  0  0  0  0
M  END
