1149
 OpenBabel10141417493D

 33 36  0  0  0  0  0  0  0  0999 V2000
    2.0754   -3.9888    1.3725 Cl  0  0  0  0  0  0  0  0  0  0  0  0
    5.4709  -11.2903   -0.3193 O   0  0  0  0  0  0  0  0  0  0  0  0
    4.3688  -13.7482    2.8662 O   0  0  0  0  0  0  0  0  0  0  0  0
    7.0471   -7.4171   -3.0059 N   0  0  0  0  0  0  0  0  0  0  0  0
    5.4274   -5.0513   -2.4203 N   0  0  0  0  0  0  0  0  0  0  0  0
    7.6843  -11.3378   -1.0811 N   0  0  0  0  0  0  0  0  0  0  0  0
    6.9807  -12.9950    0.1922 N   0  0  0  0  0  0  0  0  0  0  0  0
    8.6948  -12.2565   -1.0330 N   0  0  0  0  0  0  0  0  0  0  0  0
    7.5056   -6.1002   -3.4885 C   0  0  0  0  0  0  0  0  0  0  0  0
    5.5931   -7.4429   -3.2805 C   0  0  0  0  0  0  0  0  0  0  0  0
    6.8649   -4.8948   -2.7692 C   0  0  0  0  0  0  0  0  0  0  0  0
    4.7953   -6.3916   -2.4919 C   0  0  0  0  0  0  0  0  0  0  0  0
    7.3546   -7.5516   -1.5646 C   0  0  0  0  0  0  0  0  0  0  0  0
    7.0229   -8.9249   -0.9939 C   0  0  0  0  0  0  0  0  0  0  0  0
    7.8708  -10.0153   -1.6441 C   0  0  0  0  0  0  0  0  0  0  0  0
    4.9129   -4.1371   -1.4795 C   0  0  0  0  0  0  0  0  0  0  0  0
    6.5767  -11.8248   -0.4005 C   0  0  0  0  0  0  0  0  0  0  0  0
    8.2162  -13.2203   -0.2981 C   0  0  0  0  0  0  0  0  0  0  0  0
    3.8595   -4.4573   -0.6025 C   0  0  0  0  0  0  0  0  0  0  0  0
    5.4157   -2.8256   -1.3889 C   0  0  0  0  0  0  0  0  0  0  0  0
    6.2758  -13.6791    1.2906 C   0  0  0  0  0  0  0  0  0  0  0  0
    8.9998  -14.4675    0.0276 C   0  0  0  0  0  0  0  0  0  0  0  0
    3.3511   -3.5281    0.3104 C   0  0  0  0  0  0  0  0  0  0  0  0
    4.9003   -1.8879   -0.4855 C   0  0  0  0  0  0  0  0  0  0  0  0
    4.9367  -13.0580    1.7286 C   0  0  0  0  0  0  0  0  0  0  0  0
    3.8621   -2.2399    0.3671 C   0  0  0  0  0  0  0  0  0  0  0  0
    9.9230  -14.9078   -1.0970 C   0  0  0  0  0  0  0  0  0  0  0  0
    4.0969  -12.9443    3.9487 C   0  0  0  0  0  0  0  0  0  0  0  0
    2.9369  -13.1855    4.6932 C   0  0  0  0  0  0  0  0  0  0  0  0
    4.9611  -11.9294    4.3605 C   0  0  0  0  0  0  0  0  0  0  0  0
    2.5777  -12.3198    5.7377 C   0  0  0  0  0  0  0  0  0  0  0  0
    4.6104  -11.0740    5.4051 C   0  0  0  0  0  0  0  0  0  0  0  0
    3.3992  -11.2425    6.0685 C   0  0  0  0  0  0  0  0  0  0  0  0
  1 23  1  0  0  0  0
  2 17  2  0  0  0  0
  3 25  1  0  0  0  0
  3 28  1  0  0  0  0
  4  9  1  0  0  0  0
  4 10  1  0  0  0  0
  4 13  1  0  0  0  0
  5 11  1  0  0  0  0
  5 12  1  0  0  0  0
  5 16  1  0  0  0  0
  6  8  1  0  0  0  0
  6 15  1  0  0  0  0
  6 17  1  0  0  0  0
  7 17  1  0  0  0  0
  7 18  1  0  0  0  0
  7 21  1  0  0  0  0
  8 18  2  0  0  0  0
  9 11  1  0  0  0  0
 10 12  1  0  0  0  0
 13 14  1  0  0  0  0
 14 15  1  0  0  0  0
 16 19  2  0  0  0  0
 16 20  1  0  0  0  0
 18 22  1  0  0  0  0
 19 23  1  0  0  0  0
 20 24  2  0  0  0  0
 21 25  1  0  0  0  0
 22 27  1  0  0  0  0
 23 26  2  0  0  0  0
 24 26  1  0  0  0  0
 28 29  2  0  0  0  0
 28 30  1  0  0  0  0
 29 31  1  0  0  0  0
 30 32  2  0  0  0  0
 31 33  2  0  0  0  0
 32 33  1  0  0  0  0
M  END
