1400
 OpenBabel10141417553D

 16 16  0  0  0  0  0  0  0  0999 V2000
   -0.7965   -0.0391    0.2558 C   0  0  0  0  0  0  0  0  0  0  0  0
   -0.0424    1.0998    0.5428 C   0  0  0  0  0  0  0  0  0  0  0  0
   -0.2074   -1.1662   -0.3078 C   0  0  0  0  0  0  0  0  0  0  0  0
   -2.1602   -0.1187    0.5902 O   0  0  0  0  0  0  0  0  0  0  0  0
    1.3115    1.1601    0.2017 C   0  0  0  0  0  0  0  0  0  0  0  0
    1.1487   -1.1325   -0.6179 C   0  0  0  0  0  0  0  0  0  0  0  0
   -2.9742    0.9960    0.3473 C   0  0  0  0  0  0  0  0  0  0  0  0
    1.9007    0.0238   -0.3721 C   0  0  0  0  0  0  0  0  0  0  0  0
    2.0812    2.4446    0.4549 N   0  3  0  0  0  0  0  0  0  0  0  0
   -4.2646    0.8286    0.8277 N   0  0  0  0  0  0  0  0  0  0  0  0
   -2.5842    2.0134   -0.2088 O   0  0  0  0  0  0  0  0  0  0  0  0
    3.5386    2.3279    0.0326 C   0  0  0  0  0  0  0  0  0  0  0  0
    1.4394    3.5718   -0.3571 C   0  0  0  0  0  0  0  0  0  0  0  0
    2.0356    2.7652    1.9445 C   0  0  0  0  0  0  0  0  0  0  0  0
   -4.5998   -0.1935    1.8028 C   0  0  0  0  0  0  0  0  0  0  0  0
   -5.2069    1.9207    0.6687 C   0  0  0  0  0  0  0  0  0  0  0  0
  1  2  2  0  0  0  0
  1  3  1  0  0  0  0
  1  4  1  0  0  0  0
  2  5  1  0  0  0  0
  3  6  2  0  0  0  0
  4  7  1  0  0  0  0
  5  8  2  0  0  0  0
  5  9  1  0  0  0  0
  6  8  1  0  0  0  0
  7 10  1  0  0  0  0
  7 11  2  0  0  0  0
  9 12  1  0  0  0  0
  9 13  1  0  0  0  0
  9 14  1  0  0  0  0
 10 15  1  0  0  0  0
 10 16  1  0  0  0  0
M  CHG  1   9   1
M  END
