
 OpenBabel10141417563D

 19 20  0  0  0  0  0  0  0  0999 V2000
    6.0645    3.5261   -0.0683 C   0  0  0  0  0  0  0  0  0  0  0  0
    6.6726    2.2810   -0.2058 C   0  0  0  0  0  0  0  0  0  0  0  0
    5.9000    1.1512   -0.4843 C   0  0  0  0  0  0  0  0  0  0  0  0
    4.5068    1.2489   -0.6015 C   0  0  0  0  0  0  0  0  0  0  0  0
    3.9017    2.5075   -0.4616 C   0  0  0  0  0  0  0  0  0  0  0  0
    4.6805    3.6413   -0.1965 C   0  0  0  0  0  0  0  0  0  0  0  0
    3.6644    0.0466   -0.9128 C   0  0  0  0  0  0  0  0  0  0  0  0
    2.6071    0.2100   -1.5227 O   0  0  0  0  0  0  0  0  0  0  0  0
    4.0616   -1.3343   -0.4727 C   0  0  0  0  0  0  0  0  0  0  0  0
    3.6826   -2.4967   -1.2007 C   0  0  0  0  0  0  0  0  0  0  0  0
    4.0869   -3.7714   -0.7242 C   0  0  0  0  0  0  0  0  0  0  0  0
    4.8188   -3.8581    0.4765 C   0  0  0  0  0  0  0  0  0  0  0  0
    5.1435   -2.7190    1.2054 C   0  0  0  0  0  0  0  0  0  0  0  0
    4.7505   -1.4688    0.7443 C   0  0  0  0  0  0  0  0  0  0  0  0
    3.8391   -5.0557   -1.4968 C   0  0  0  0  0  0  0  0  0  0  0  0
    2.3793   -5.4365   -1.6826 C   0  0  0  0  0  0  0  0  0  0  0  0
    1.6841   -5.0176   -2.5903 O   0  0  0  0  0  0  0  0  0  0  0  0
    1.8746   -6.3287   -0.7730 N   0  0  0  0  0  0  0  0  0  0  0  0
    3.1019   -2.4060   -2.4860 N   0  0  0  0  0  0  0  0  0  0  0  0
  1  2  2  0  0  0  0
  1  6  1  0  0  0  0
  2  3  1  0  0  0  0
  3  4  2  0  0  0  0
  4  5  1  0  0  0  0
  4  7  1  0  0  0  0
  5  6  2  0  0  0  0
  7  8  2  0  0  0  0
  7  9  1  0  0  0  0
  9 10  2  0  0  0  0
  9 14  1  0  0  0  0
 10 11  1  0  0  0  0
 10 19  1  0  0  0  0
 11 12  2  0  0  0  0
 11 15  1  0  0  0  0
 12 13  1  0  0  0  0
 13 14  2  0  0  0  0
 15 16  1  0  0  0  0
 16 17  2  0  0  0  0
 16 18  1  0  0  0  0
M  END
