
 OpenBabel10141417513D

 33 35  0  0  1  0  0  0  0  0999 V2000
    0.7467    1.1232   -0.3021 C   0  0  1  0  0  0  0  0  0  0  0  0
    1.7261    0.1259    0.3974 C   0  0  1  0  0  0  0  0  0  0  0  0
   -0.7512    0.7276   -0.1282 C   0  0  2  0  0  0  0  0  0  0  0  0
    1.2953   -1.3324    0.1740 C   0  0  0  0  0  0  0  0  0  0  0  0
    3.1110    0.3665   -0.0976 N   0  0  0  0  0  0  0  0  0  0  0  0
   -1.1763   -0.7591   -0.0990 C   0  0  2  0  0  0  0  0  0  0  0  0
   -1.4397    1.3487   -1.2487 O   0  0  0  0  0  0  0  0  0  0  0  0
   -2.0455    4.2301   -0.0968 C   0  0  0  0  0  0  0  0  0  0  0  0
    4.1648   -0.4843    0.4590 C   0  0  0  0  0  0  0  0  0  0  0  0
   -2.5047   -0.9397    0.5188 O   0  0  0  0  0  0  0  0  0  0  0  0
   -1.8182    5.5337    0.6376 C   0  0  1  0  0  0  0  0  0  0  0  0
   -1.0777    3.3198    0.3718 O   0  0  0  0  0  0  0  0  0  0  0  0
    4.4144   -0.2749    1.9447 C   0  0  0  0  0  0  0  0  0  0  0  0
   -3.5879   -0.2909   -0.2082 C   0  0  1  0  0  0  0  0  0  0  0  0
   -0.3980    6.0570    0.2912 C   0  0  2  0  0  0  0  0  0  0  0  0
   -2.8454    6.4348    0.2191 O   0  0  0  0  0  0  0  0  0  0  0  0
    0.1984    3.5490   -0.2070 C   0  0  1  0  0  0  0  0  0  0  0  0
   -3.7054   -0.8423   -1.5366 O   0  0  0  0  0  0  0  0  0  0  0  0
   -4.9749   -0.2760    0.5301 C   0  0  1  0  0  0  0  0  0  0  0  0
    0.7148    4.9219    0.3811 C   0  0  1  0  0  0  0  0  0  0  0  0
   -4.3812   -2.0381   -1.6259 C   0  0  0  0  0  0  0  0  0  0  0  0
   -5.6870   -1.6285    0.4668 C   0  0  0  0  0  0  0  0  0  0  0  0
   -4.9388    0.1948    1.9291 N   0  0  0  0  0  0  0  0  0  0  0  0
    1.9821    5.3966   -0.3421 C   0  0  0  0  0  0  0  0  0  0  0  0
    1.0538    4.6904    1.7672 O   0  0  0  0  0  0  0  0  0  0  0  0
   -5.3070   -2.4371   -0.7095 C   0  0  0  0  0  0  0  0  0  0  0  0
   -3.9341   -2.9773   -2.6977 C   0  0  0  0  0  0  0  0  0  0  0  0
   -4.6202   -2.8019   -3.9702 N   0  0  0  0  0  0  0  0  0  0  0  0
    1.0571    2.4656    0.2160 O   0  0  0  0  0  0  0  0  0  0  0  0
   -0.0772    7.3569    0.9586 N   0  0  0  0  0  0  0  0  0  0  0  0
    0.0000    7.3210    2.4161 C   0  0  0  0  0  0  0  0  0  0  0  0
   -0.1353   -1.6270    0.6433 C   0  0  1  0  0  0  0  0  0  0  0  0
   -0.3809   -3.0653    0.4002 N   0  0  0  0  0  0  0  0  0  0  0  0
  1  2  1  0  0  0  0
  1  3  1  0  0  0  0
  1 29  1  1  0  0  0
  2  4  1  0  0  0  0
  2  5  1  6  0  0  0
  3  6  1  0  0  0  0
  3  7  1  6  0  0  0
  4 32  1  0  0  0  0
  5  9  1  0  0  0  0
  6 10  1  1  0  0  0
  6 32  1  0  0  0  0
  8 11  1  0  0  0  0
  8 12  1  0  0  0  0
  9 13  1  0  0  0  0
 11 15  1  0  0  0  0
 11 16  1  6  0  0  0
 12 17  1  0  0  0  0
 14 10  1  1  0  0  0
 14 18  1  0  0  0  0
 14 19  1  0  0  0  0
 15 20  1  0  0  0  0
 15 30  1  1  0  0  0
 17 20  1  0  0  0  0
 17 29  1  1  0  0  0
 18 21  1  0  0  0  0
 19 22  1  0  0  0  0
 19 23  1  1  0  0  0
 20 24  1  6  0  0  0
 20 25  1  0  0  0  0
 21 26  2  0  0  0  0
 21 27  1  0  0  0  0
 22 26  1  0  0  0  0
 27 28  1  0  0  0  0
 30 31  1  0  0  0  0
 32 33  1  6  0  0  0
M  END
