627
 OpenBabel10141417543D

  9  9  0  0  0  0  0  0  0  0999 V2000
    1.3527    0.6396    0.5327 O   0  0  0  0  0  0  0  0  0  0  0  0
    2.8575   -1.0302    0.7951 O   0  0  0  0  0  0  0  0  0  0  0  0
    4.0313   -0.3731   -3.2034 N   0  0  0  0  0  0  0  0  0  0  0  0
    2.9915    0.3290   -1.1384 C   0  0  0  0  0  0  0  0  0  0  0  0
    3.0803    1.6660   -1.5330 C   0  0  0  0  0  0  0  0  0  0  0  0
    3.4944   -0.6453   -1.9886 C   0  0  0  0  0  0  0  0  0  0  0  0
    3.6381    1.9700   -2.7736 C   0  0  0  0  0  0  0  0  0  0  0  0
    4.0915    0.9268   -3.5674 C   0  0  0  0  0  0  0  0  0  0  0  0
    2.4234   -0.0898    0.1546 C   0  0  0  0  0  0  0  0  0  0  0  0
  1  9  1  0  0  0  0
  2  9  2  0  0  0  0
  3  6  1  0  0  0  0
  3  8  2  0  0  0  0
  4  5  1  0  0  0  0
  4  6  2  0  0  0  0
  4  9  1  0  0  0  0
  5  7  2  0  0  0  0
  7  8  1  0  0  0  0
M  END
