699
 OpenBabel10141417483D

 31 35  0  0  1  0  0  0  0  0999 V2000
   -4.2696   -3.0637    5.8288 Br  0  0  0  0  0  0  0  0  0  0  0  0
   -0.8907   -8.1466    0.2713 O   0  0  0  0  0  0  0  0  0  0  0  0
   -4.4385   -4.3995    0.6045 O   0  0  0  0  0  0  0  0  0  0  0  0
   -4.8828   -2.4702   -0.5607 O   0  0  0  0  0  0  0  0  0  0  0  0
   -0.2818   -5.0859    0.7577 N   0  0  0  0  0  0  0  0  0  0  0  0
   -0.0245   -8.4851    5.6956 N   0  0  0  0  0  0  0  0  0  0  0  0
   -6.2934   -0.7990    3.0102 N   0  0  0  0  0  0  0  0  0  0  0  0
   -1.4135   -7.3716    1.3667 C   0  0  1  0  0  0  0  0  0  0  0  0
   -0.5278   -6.1051    1.8093 C   0  0  1  0  0  0  0  0  0  0  0  0
   -2.7537   -6.7783    0.8567 C   0  0  0  0  0  0  0  0  0  0  0  0
   -2.5585   -5.6910   -0.2207 C   0  0  2  0  0  0  0  0  0  0  0  0
    0.7152   -6.4222    2.7086 C   0  0  0  0  0  0  0  0  0  0  0  0
   -1.6888   -8.2801    2.5648 C   0  0  0  0  0  0  0  0  0  0  0  0
   -1.5655   -4.6000    0.2341 C   0  0  0  0  0  0  0  0  0  0  0  0
   -0.8314   -8.1699    3.6706 C   0  0  0  0  0  0  0  0  0  0  0  0
    0.2990   -7.3331    3.8209 C   0  0  0  0  0  0  0  0  0  0  0  0
   -3.9132   -5.0471   -0.5701 C   0  0  0  0  0  0  0  0  0  0  0  0
   -1.0099   -8.9088    4.8268 C   0  0  0  0  0  0  0  0  0  0  0  0
    0.6273   -5.4766   -0.3105 C   0  0  0  0  0  0  0  0  0  0  0  0
   -2.7116   -9.2376    2.6557 C   0  0  0  0  0  0  0  0  0  0  0  0
    0.7881   -7.5507    5.0879 C   0  0  0  0  0  0  0  0  0  0  0  0
   -2.0457   -9.8439    4.9333 C   0  0  0  0  0  0  0  0  0  0  0  0
   -2.8843   -9.9990    3.8187 C   0  0  0  0  0  0  0  0  0  0  0  0
    0.3639   -8.7824    0.4623 C   0  0  0  0  0  0  0  0  0  0  0  0
    0.1082   -8.9235    7.0663 C   0  0  0  0  0  0  0  0  0  0  0  0
   -4.8074   -3.1066    0.4811 C   0  0  0  0  0  0  0  0  0  0  0  0
   -5.1196   -2.5340    1.7973 C   0  0  0  0  0  0  0  0  0  0  0  0
   -4.5970   -3.0392    2.9911 C   0  0  0  0  0  0  0  0  0  0  0  0
   -5.9415   -1.4165    1.8541 C   0  0  0  0  0  0  0  0  0  0  0  0
   -4.9403   -2.4191    4.1888 C   0  0  0  0  0  0  0  0  0  0  0  0
   -5.7855   -1.3189    4.1533 C   0  0  0  0  0  0  0  0  0  0  0  0
  1 30  1  0  0  0  0
  2 24  1  0  0  0  0
  3 17  1  0  0  0  0
  3 26  1  0  0  0  0
  4 26  2  0  0  0  0
  5 14  1  0  0  0  0
  5 19  1  0  0  0  0
  6 18  1  0  0  0  0
  6 21  1  0  0  0  0
  6 25  1  0  0  0  0
  7 29  2  0  0  0  0
  7 31  1  0  0  0  0
  8  9  1  0  0  0  0
  8 10  1  0  0  0  0
  8 13  1  0  0  0  0
  8  2  1  6  0  0  0
  9  5  1  6  0  0  0
  9 12  1  0  0  0  0
 10 11  1  0  0  0  0
 11 14  1  0  0  0  0
 11 17  1  1  0  0  0
 12 16  1  0  0  0  0
 13 15  2  0  0  0  0
 13 20  1  0  0  0  0
 15 16  1  0  0  0  0
 15 18  1  0  0  0  0
 16 21  2  0  0  0  0
 18 22  2  0  0  0  0
 20 23  2  0  0  0  0
 22 23  1  0  0  0  0
 26 27  1  0  0  0  0
 27 28  2  0  0  0  0
 27 29  1  0  0  0  0
 28 30  1  0  0  0  0
 30 31  2  0  0  0  0
M  END
