
 OpenBabel10141417563D

 21 22  0  0  0  0  0  0  0  0999 V2000
   -1.7122   -0.5271   -0.3827 C   0  0  0  0  0  0  0  0  0  0  0  0
   -1.2711    0.7907   -0.5352 C   0  0  0  0  0  0  0  0  0  0  0  0
    0.0944    1.0881   -0.5511 C   0  0  0  0  0  0  0  0  0  0  0  0
    1.0197    0.0259   -0.4711 C   0  0  0  0  0  0  0  0  0  0  0  0
    0.5926   -1.2951   -0.3173 C   0  0  0  0  0  0  0  0  0  0  0  0
   -0.7788   -1.5619   -0.2577 C   0  0  0  0  0  0  0  0  0  0  0  0
   -1.2458   -2.9367   -0.0486 N   0  3  0  0  0  0  0  0  0  0  0  0
   -2.4683   -3.1263    0.0115 O   0  0  0  0  0  0  0  0  0  0  0  0
   -0.3882   -3.8235    0.0608 O   0  5  0  0  0  0  0  0  0  0  0  0
    2.7242    0.3297   -0.5150 Cl  0  0  0  0  0  0  0  0  0  0  0  0
    0.5876    2.4129   -0.6283 N   0  0  0  0  0  0  0  0  0  0  0  0
   -0.1284    3.5741   -0.3857 C   0  0  0  0  0  0  0  0  0  0  0  0
   -1.3077    3.6482   -0.0598 O   0  0  0  0  0  0  0  0  0  0  0  0
    0.6599    4.8374   -0.4179 C   0  0  0  0  0  0  0  0  0  0  0  0
    0.2820    5.9079    0.4108 C   0  0  0  0  0  0  0  0  0  0  0  0
    1.0605    7.0619    0.4761 C   0  0  0  0  0  0  0  0  0  0  0  0
    2.2052    7.1711   -0.3127 C   0  0  0  0  0  0  0  0  0  0  0  0
    2.5485    6.1350   -1.1798 C   0  0  0  0  0  0  0  0  0  0  0  0
    1.7801    4.9723   -1.2438 C   0  0  0  0  0  0  0  0  0  0  0  0
    3.9423    6.2830   -2.1774 Cl  0  0  0  0  0  0  0  0  0  0  0  0
   -0.8389    5.8910    1.1962 O   0  0  0  0  0  0  0  0  0  0  0  0
  1  2  2  0  0  0  0
  1  6  1  0  0  0  0
  2  3  1  0  0  0  0
  3  4  2  0  0  0  0
  3 11  1  0  0  0  0
  4  5  1  0  0  0  0
  4 10  1  0  0  0  0
  5  6  2  0  0  0  0
  6  7  1  0  0  0  0
  7  8  2  0  0  0  0
  7  9  1  0  0  0  0
 11 12  1  0  0  0  0
 12 13  2  0  0  0  0
 12 14  1  0  0  0  0
 14 15  2  0  0  0  0
 14 19  1  0  0  0  0
 15 16  1  0  0  0  0
 15 21  1  0  0  0  0
 16 17  2  0  0  0  0
 17 18  1  0  0  0  0
 18 19  2  0  0  0  0
 18 20  1  0  0  0  0
M  CHG  2   7   1   9  -1
M  END
