1115
 OpenBabel10141417523D

 25 26  0  0  0  0  0  0  0  0999 V2000
    0.8288   -0.1551    0.9205 O   0  0  0  0  0  0  0  0  0  0  0  0
   -5.4817   -0.1476    2.1649 O   0  0  0  0  0  0  0  0  0  0  0  0
    0.8607   -2.0925   -0.2971 O   0  0  0  0  0  0  0  0  0  0  0  0
   -3.5571    0.1319    3.3568 O   0  0  0  0  0  0  0  0  0  0  0  0
   -0.2156    1.0681   -1.9591 O   0  5  0  0  0  0  0  0  0  0  0  0
   -2.2124    1.7490   -2.5949 O   0  0  0  0  0  0  0  0  0  0  0  0
   -3.2273   -1.1692   -1.1741 N   0  0  0  0  0  0  0  0  0  0  0  0
   -1.3153    1.6014   -1.7538 N   0  3  0  0  0  0  0  0  0  0  0  0
   -1.9242    0.0526    0.9678 C   0  0  3  0  0  0  0  0  0  0  0  0
   -1.1860   -0.8568   -0.0198 C   0  0  0  0  0  0  0  0  0  0  0  0
   -3.4449   -0.2434    0.9896 C   0  0  0  0  0  0  0  0  0  0  0  0
   -1.6780    1.5742    0.7550 C   0  0  0  0  0  0  0  0  0  0  0  0
   -1.8631   -1.3891   -1.0642 C   0  0  0  0  0  0  0  0  0  0  0  0
   -4.0287   -0.7782   -0.1143 C   0  0  0  0  0  0  0  0  0  0  0  0
   -1.4943    2.2572   -0.4713 C   0  0  0  0  0  0  0  0  0  0  0  0
   -1.7102    2.3985    1.9054 C   0  0  0  0  0  0  0  0  0  0  0  0
    0.2635   -1.1249    0.1652 C   0  0  0  0  0  0  0  0  0  0  0  0
   -4.1424   -0.0510    2.2999 C   0  0  0  0  0  0  0  0  0  0  0  0
   -1.2322   -2.1358   -2.2136 C   0  0  0  0  0  0  0  0  0  0  0  0
   -5.4997   -1.0595   -0.3069 C   0  0  0  0  0  0  0  0  0  0  0  0
   -1.3830    3.6608   -0.5500 C   0  0  0  0  0  0  0  0  0  0  0  0
   -1.5912    3.7962    1.8301 C   0  0  0  0  0  0  0  0  0  0  0  0
   -1.4378    4.4290    0.6028 C   0  0  0  0  0  0  0  0  0  0  0  0
    2.2581   -0.1765    0.9111 C   0  0  0  0  0  0  0  0  0  0  0  0
   -6.2969   -0.1249    3.3360 C   0  0  0  0  0  0  0  0  0  0  0  0
  1 17  1  0  0  0  0
  1 24  1  0  0  0  0
  2 18  1  0  0  0  0
  2 25  1  0  0  0  0
  3 17  2  0  0  0  0
  4 18  2  0  0  0  0
  5  8  1  0  0  0  0
  6  8  2  0  0  0  0
  7 13  1  0  0  0  0
  7 14  1  0  0  0  0
  8 15  1  0  0  0  0
  9 10  1  0  0  0  0
  9 11  1  0  0  0  0
  9 12  1  0  0  0  0
 10 13  2  0  0  0  0
 10 17  1  0  0  0  0
 11 14  2  0  0  0  0
 11 18  1  0  0  0  0
 12 15  1  0  0  0  0
 12 16  2  0  0  0  0
 13 19  1  0  0  0  0
 14 20  1  0  0  0  0
 15 21  2  0  0  0  0
 16 22  1  0  0  0  0
 21 23  1  0  0  0  0
 22 23  2  0  0  0  0
M  CHG  2   5  -1   8   1
M  END
