
 OpenBabel10141417493D

 39 43  0  0  0  0  0  0  0  0999 V2000
    0.4019    0.1939    2.5762 F   0  0  0  0  0  0  0  0  0  0  0  0
   -0.9697    1.8765    2.4944 F   0  0  0  0  0  0  0  0  0  0  0  0
    0.8762    2.0299    3.6360 F   0  0  0  0  0  0  0  0  0  0  0  0
    2.8944    5.3900   -2.4839 O   0  0  0  0  0  0  0  0  0  0  0  0
    3.0447    0.7457   -1.6189 N   0  0  0  0  0  0  0  0  0  0  0  0
    1.7080    5.3312   -0.4728 N   0  0  0  0  0  0  0  0  0  0  0  0
    1.7932   10.4943    0.3764 N   0  0  0  0  0  0  0  0  0  0  0  0
    3.8194   -1.1792   -2.4699 N   0  0  0  0  0  0  0  0  0  0  0  0
    1.3310   11.2163    2.5392 N   0  0  0  0  0  0  0  0  0  0  0  0
    0.4661    9.1396    1.8183 N   0  0  0  0  0  0  0  0  0  0  0  0
    2.5705   13.6864    5.7330 N   0  0  0  0  0  0  0  0  0  0  0  0
    2.3779    1.6482   -0.7441 C   0  0  0  0  0  0  0  0  0  0  0  0
    1.7514    3.9432   -0.1795 C   0  0  0  0  0  0  0  0  0  0  0  0
    1.0618    2.0864    1.2522 C   0  0  0  0  0  0  0  0  0  0  0  0
    2.4061    3.0229   -1.0023 C   0  0  0  0  0  0  0  0  0  0  0  0
    1.6916    1.1854    0.3782 C   0  0  0  0  0  0  0  0  0  0  0  0
    1.0998    3.4677    0.9668 C   0  0  0  0  0  0  0  0  0  0  0  0
    2.1234    7.4217   -1.7125 C   0  0  0  0  0  0  0  0  0  0  0  0
    2.0031    9.6602   -0.7360 C   0  0  0  0  0  0  0  0  0  0  0  0
    2.1954   10.2111   -2.0252 C   0  0  0  0  0  0  0  0  0  0  0  0
    1.9697    8.2605   -0.6066 C   0  0  0  0  0  0  0  0  0  0  0  0
    2.2761    5.9453   -1.5901 C   0  0  0  0  0  0  0  0  0  0  0  0
    3.7923    1.0584   -2.7330 C   0  0  0  0  0  0  0  0  0  0  0  0
    2.2497    7.9826   -2.9870 C   0  0  0  0  0  0  0  0  0  0  0  0
    2.2731    9.3641   -3.1432 C   0  0  0  0  0  0  0  0  0  0  0  0
    0.3515    1.5533    2.4747 C   0  0  0  0  0  0  0  0  0  0  0  0
    3.0921   -0.6280   -1.5241 C   0  0  0  0  0  0  0  0  0  0  0  0
    4.2726   -0.1337   -3.2261 C   0  0  0  0  0  0  0  0  0  0  0  0
    2.3255   11.6919   -2.2632 C   0  0  0  0  0  0  0  0  0  0  0  0
    1.1736   10.2618    1.6061 C   0  0  0  0  0  0  0  0  0  0  0  0
    5.1582   -0.3538   -4.3870 C   0  0  0  0  0  0  0  0  0  0  0  0
    0.7561   11.0299    3.7525 C   0  0  0  0  0  0  0  0  0  0  0  0
    1.0135   12.0681    4.7666 C   0  0  0  0  0  0  0  0  0  0  0  0
    0.0298    9.8914    4.0413 C   0  0  0  0  0  0  0  0  0  0  0  0
   -0.0827    8.9734    3.0310 C   0  0  0  0  0  0  0  0  0  0  0  0
    0.1132   12.3690    5.8021 C   0  0  0  0  0  0  0  0  0  0  0  0
    2.2123   12.7832    4.7838 C   0  0  0  0  0  0  0  0  0  0  0  0
    0.4475   13.2954    6.7909 C   0  0  0  0  0  0  0  0  0  0  0  0
    1.6826   13.9128    6.7207 C   0  0  0  0  0  0  0  0  0  0  0  0
  1 26  1  0  0  0  0
  2 26  1  0  0  0  0
  3 26  1  0  0  0  0
  4 22  2  0  0  0  0
  5 12  1  0  0  0  0
  5 23  1  0  0  0  0
  5 27  1  0  0  0  0
  6 13  1  0  0  0  0
  6 22  1  0  0  0  0
  7 19  1  0  0  0  0
  7 30  1  0  0  0  0
  8 27  2  0  0  0  0
  8 28  1  0  0  0  0
  9 30  1  0  0  0  0
  9 32  2  0  0  0  0
 10 30  2  0  0  0  0
 10 35  1  0  0  0  0
 11 37  1  0  0  0  0
 11 39  2  0  0  0  0
 12 15  1  0  0  0  0
 12 16  2  0  0  0  0
 13 15  2  0  0  0  0
 13 17  1  0  0  0  0
 14 16  1  0  0  0  0
 14 17  2  0  0  0  0
 14 26  1  0  0  0  0
 18 21  2  0  0  0  0
 18 22  1  0  0  0  0
 18 24  1  0  0  0  0
 19 20  2  0  0  0  0
 19 21  1  0  0  0  0
 20 25  1  0  0  0  0
 20 29  1  0  0  0  0
 23 28  2  0  0  0  0
 24 25  2  0  0  0  0
 28 31  1  0  0  0  0
 32 33  1  0  0  0  0
 32 34  1  0  0  0  0
 33 36  1  0  0  0  0
 33 37  2  0  0  0  0
 34 35  2  0  0  0  0
 36 38  2  0  0  0  0
 38 39  1  0  0  0  0
M  END
