507
 OpenBabel10141417503D

 21 22  0  0  0  0  0  0  0  0999 V2000
    1.4386    0.7944    0.7642 S   0  0  0  0  0  0  0  0  0  0  0  0
    1.7278   -5.5723   -0.4786 O   0  0  0  0  0  0  0  0  0  0  0  0
    1.0725   -3.1438   -1.4158 O   0  0  0  0  0  0  0  0  0  0  0  0
    1.9863   -7.3561    1.0111 O   0  0  0  0  0  0  0  0  0  0  0  0
   -1.5093    3.1676    0.0847 O   0  5  0  0  0  0  0  0  0  0  0  0
    0.1105    3.2803    1.5682 O   0  0  0  0  0  0  0  0  0  0  0  0
    2.1423   -1.5223   -0.1428 N   0  0  0  0  0  0  0  0  0  0  0  0
    0.1459   -0.4886   -1.0559 N   0  0  0  0  0  0  0  0  0  0  0  0
   -0.4942    2.7325    0.6378 N   0  3  0  0  0  0  0  0  0  0  0  0
    3.2047   -3.6553   -0.5616 C   0  0  0  0  0  0  0  0  0  0  0  0
    3.0384   -5.0450   -0.4194 C   0  0  0  0  0  0  0  0  0  0  0  0
    2.0295   -2.7508   -0.7624 C   0  0  0  0  0  0  0  0  0  0  0  0
    4.5056   -3.1244   -0.5600 C   0  0  0  0  0  0  0  0  0  0  0  0
    4.1505   -5.8837   -0.2909 C   0  0  0  0  0  0  0  0  0  0  0  0
    5.6124   -3.9637   -0.4074 C   0  0  0  0  0  0  0  0  0  0  0  0
    1.1900   -0.5466   -0.2695 C   0  0  0  0  0  0  0  0  0  0  0  0
    5.4345   -5.3396   -0.2735 C   0  0  0  0  0  0  0  0  0  0  0  0
    0.0087    1.4862    0.1550 C   0  0  0  0  0  0  0  0  0  0  0  0
   -0.5423    0.6912   -0.8211 C   0  0  0  0  0  0  0  0  0  0  0  0
    1.3173   -6.7044    0.2196 C   0  0  0  0  0  0  0  0  0  0  0  0
   -0.1218   -6.9881   -0.0967 C   0  0  0  0  0  0  0  0  0  0  0  0
  1 16  1  0  0  0  0
  1 18  1  0  0  0  0
  2 11  1  0  0  0  0
  2 20  1  0  0  0  0
  3 12  2  0  0  0  0
  4 20  2  0  0  0  0
  5  9  1  0  0  0  0
  6  9  2  0  0  0  0
  7 12  1  0  0  0  0
  7 16  1  0  0  0  0
  8 16  2  0  0  0  0
  8 19  1  0  0  0  0
  9 18  1  0  0  0  0
 10 11  1  0  0  0  0
 10 12  1  0  0  0  0
 10 13  2  0  0  0  0
 11 14  2  0  0  0  0
 13 15  1  0  0  0  0
 14 17  1  0  0  0  0
 15 17  2  0  0  0  0
 18 19  2  0  0  0  0
 20 21  1  0  0  0  0
M  CHG  2   5  -1   9   1
M  END
