348
 OpenBabel10141417493D

 23 24  0  0  0  0  0  0  0  0999 V2000
    0.8267    1.3148   -1.3502 F   0  0  0  0  0  0  0  0  0  0  0  0
    1.0110   -0.6974   -0.5454 F   0  0  0  0  0  0  0  0  0  0  0  0
    2.6837    0.2113   -1.5974 F   0  0  0  0  0  0  0  0  0  0  0  0
    4.6750   -0.0135    6.0402 O   0  0  0  0  0  0  0  0  0  0  0  0
    6.6489    3.6998    4.3298 O   0  0  0  0  0  0  0  0  0  0  0  0
    2.9214    3.1901    5.0594 O   0  0  0  0  0  0  0  0  0  0  0  0
    2.8669    4.9553    2.7424 O   0  5  0  0  0  0  0  0  0  0  0  0
    0.7436    4.3514    2.7723 O   0  0  0  0  0  0  0  0  0  0  0  0
    1.9548    4.1223    2.6584 N   0  3  0  0  0  0  0  0  0  0  0  0
    5.0237    2.0669    4.9323 C   0  0  0  0  0  0  0  0  0  0  0  0
    5.7471    2.9307    7.6775 C   0  0  0  0  0  0  0  0  0  0  0  0
    4.6431    1.9036    7.4819 C   0  0  0  0  0  0  0  0  0  0  0  0
    5.7757    3.9481    6.5456 C   0  0  0  0  0  0  0  0  0  0  0  0
    4.8212    1.2050    6.1525 C   0  0  0  0  0  0  0  0  0  0  0  0
    5.9094    3.2543    5.2090 C   0  0  0  0  0  0  0  0  0  0  0  0
    3.6810    2.4956    4.3904 C   0  0  0  0  0  0  0  0  0  0  0  0
    3.2222    2.0211    3.0558 C   0  0  0  0  0  0  0  0  0  0  0  0
    2.3347    2.7742    2.2750 C   0  0  0  0  0  0  0  0  0  0  0  0
    3.5894    0.7496    2.5922 C   0  0  0  0  0  0  0  0  0  0  0  0
    2.2078    1.0254    0.5942 C   0  0  0  0  0  0  0  0  0  0  0  0
    1.8235    2.2905    1.0581 C   0  0  0  0  0  0  0  0  0  0  0  0
    3.0973    0.2659    1.3714 C   0  0  0  0  0  0  0  0  0  0  0  0
    1.6839    0.4726   -0.7130 C   0  0  0  0  0  0  0  0  0  0  0  0
  1 23  1  0  0  0  0
  2 23  1  0  0  0  0
  3 23  1  0  0  0  0
  4 14  2  0  0  0  0
  5 15  2  0  0  0  0
  6 16  2  0  0  0  0
  7  9  1  0  0  0  0
  8  9  2  0  0  0  0
  9 18  1  0  0  0  0
 10 14  1  0  0  0  0
 10 15  1  0  0  0  0
 10 16  1  0  0  0  0
 11 12  1  0  0  0  0
 11 13  1  0  0  0  0
 12 14  1  0  0  0  0
 13 15  1  0  0  0  0
 16 17  1  0  0  0  0
 17 18  2  0  0  0  0
 17 19  1  0  0  0  0
 18 21  1  0  0  0  0
 19 22  2  0  0  0  0
 20 21  2  0  0  0  0
 20 22  1  0  0  0  0
 20 23  1  0  0  0  0
M  CHG  2   7  -1   9   1
M  END
