1054
 OpenBabel10141417513D

 26 27  0  0  1  0  0  0  0  0999 V2000
    0.7034   -0.8068    0.1515 O   0  0  0  0  0  0  0  0  0  0  0  0
   -3.5568   -2.6221   -0.5033 O   0  0  0  0  0  0  0  0  0  0  0  0
    1.1838    0.8699    1.6307 O   0  0  0  0  0  0  0  0  0  0  0  0
   -5.5114   -1.8724    0.4129 O   0  0  0  0  0  0  0  0  0  0  0  0
   -0.0337   -5.8363   -0.0625 O   0  5  0  0  0  0  0  0  0  0  0  0
    0.3652   -6.8484    1.8415 O   0  0  0  0  0  0  0  0  0  0  0  0
   -3.0267    1.0548    2.3218 N   0  0  0  0  0  0  0  0  0  0  0  0
   -0.0328   -5.8811    1.1769 N   0  3  0  0  0  0  0  0  0  0  0  0
   -1.8730   -1.1855    1.0515 C   0  0  3  0  0  0  0  0  0  0  0  0
   -1.0653    0.0631    1.4297 C   0  0  0  0  0  0  0  0  0  0  0  0
   -3.3934   -0.9563    1.1201 C   0  0  0  0  0  0  0  0  0  0  0  0
   -1.4335   -2.4282    1.8554 C   0  0  0  0  0  0  0  0  0  0  0  0
   -1.6731    1.1173    2.0292 C   0  0  0  0  0  0  0  0  0  0  0  0
   -3.8941    0.1190    1.7792 C   0  0  0  0  0  0  0  0  0  0  0  0
   -0.9703   -3.5757    1.1837 C   0  0  0  0  0  0  0  0  0  0  0  0
    0.3870    0.1066    1.1050 C   0  0  0  0  0  0  0  0  0  0  0  0
   -1.4669   -2.4595    3.2629 C   0  0  0  0  0  0  0  0  0  0  0  0
   -1.0038    2.4301    2.3680 C   0  0  0  0  0  0  0  0  0  0  0  0
   -5.3631    0.4335    1.9403 C   0  0  0  0  0  0  0  0  0  0  0  0
   -4.2924   -1.8611    0.3429 C   0  0  0  0  0  0  0  0  0  0  0  0
   -0.5327   -4.7070    1.8995 C   0  0  0  0  0  0  0  0  0  0  0  0
   -1.0350   -3.5909    3.9709 C   0  0  0  0  0  0  0  0  0  0  0  0
   -0.5657   -4.7163    3.2967 C   0  0  0  0  0  0  0  0  0  0  0  0
    2.0879   -0.8662   -0.2322 C   0  0  0  0  0  0  0  0  0  0  0  0
   -4.2660   -3.5180   -1.3652 C   0  0  0  0  0  0  0  0  0  0  0  0
    2.6326   -2.2443    0.0888 C   0  0  0  0  0  0  0  0  0  0  0  0
  1 16  1  0  0  0  0
  1 24  1  0  0  0  0
  2 20  1  0  0  0  0
  2 25  1  0  0  0  0
  3 16  2  0  0  0  0
  4 20  2  0  0  0  0
  5  8  1  0  0  0  0
  6  8  2  0  0  0  0
  7 13  1  0  0  0  0
  7 14  1  0  0  0  0
  8 21  1  0  0  0  0
  9 10  1  0  0  0  0
  9 11  1  0  0  0  0
  9 12  1  0  0  0  0
 10 13  2  0  0  0  0
 10 16  1  0  0  0  0
 11 14  2  0  0  0  0
 11 20  1  0  0  0  0
 12 15  2  0  0  0  0
 12 17  1  0  0  0  0
 13 18  1  0  0  0  0
 14 19  1  0  0  0  0
 15 21  1  0  0  0  0
 17 22  2  0  0  0  0
 21 23  2  0  0  0  0
 22 23  1  0  0  0  0
 24 26  1  0  0  0  0
M  CHG  2   5  -1   8   1
M  END
