336
 OpenBabel10141417543D

 14 14  0  0  0  0  0  0  0  0999 V2000
    0.8866   -0.4112    0.3124 O   0  0  0  0  0  0  0  0  0  0  0  0
    1.9715    2.8589   -0.1402 O   0  5  0  0  0  0  0  0  0  0  0  0
    3.0827    0.9990    0.2731 O   0  0  0  0  0  0  0  0  0  0  0  0
   -2.9988   -6.0919    0.9402 O   0  0  0  0  0  0  0  0  0  0  0  0
    2.0448    1.6402    0.0654 N   0  3  0  0  0  0  0  0  0  0  0  0
   -1.7693   -2.8206    0.4549 N   0  0  0  0  0  0  0  0  0  0  0  0
   -1.7931   -4.1724    0.6867 N   0  0  0  0  0  0  0  0  0  0  0  0
   -4.0686   -4.1674    0.4137 N   0  0  0  0  0  0  0  0  0  0  0  0
   -0.3941   -0.8902    0.2558 C   0  0  0  0  0  0  0  0  0  0  0  0
   -1.2683    0.1441   -0.0334 C   0  0  0  0  0  0  0  0  0  0  0  0
    0.8098    0.9220    0.0585 C   0  0  0  0  0  0  0  0  0  0  0  0
   -0.4864    1.3225   -0.1600 C   0  0  0  0  0  0  0  0  0  0  0  0
   -0.5868   -2.2928    0.4889 C   0  0  0  0  0  0  0  0  0  0  0  0
   -2.9602   -4.8920    0.6973 C   0  0  0  0  0  0  0  0  0  0  0  0
  1  9  1  0  0  0  0
  1 11  1  0  0  0  0
  2  5  1  0  0  0  0
  3  5  2  0  0  0  0
  4 14  2  0  0  0  0
  5 11  1  0  0  0  0
  6  7  1  0  0  0  0
  6 13  2  0  0  0  0
  7 14  1  0  0  0  0
  8 14  1  0  0  0  0
  9 10  2  0  0  0  0
  9 13  1  0  0  0  0
 10 12  1  0  0  0  0
 11 12  2  0  0  0  0
M  CHG  2   2  -1   5   1
M  END
