
 OpenBabel10141417523D

 13 12  0  0  0  0  0  0  0  0999 V2000
    0.9844    0.0139   -0.0995 N   0  0  0  0  0  0  0  0  0  0  0  0
    4.1474    1.7050    1.0346 C   0  0  0  0  0  0  0  0  0  0  0  0
    2.1415    0.0153   -0.0985 C   0  0  0  0  0  0  0  0  0  0  0  0
    4.1660   -1.1112    1.5851 C   0  0  0  0  0  0  0  0  0  0  0  0
    4.1371    2.6659    1.6790 N   0  0  0  0  0  0  0  0  0  0  0  0
    4.1647   -1.7562    2.5457 N   0  0  0  0  0  0  0  0  0  0  0  0
    4.1671    0.0175   -0.0971 Fe  0  6  0  0  0  0  0  0  0  0  0  0
    4.1644   -1.6647   -1.2252 C   0  0  0  0  0  0  0  0  0  0  0  0
    4.1630   -2.6257   -1.8697 N   0  0  0  0  0  0  0  0  0  0  0  0
    4.1660    1.1454   -1.7798 C   0  0  0  0  0  0  0  0  0  0  0  0
    4.1647    1.7893   -2.7412 N   0  0  0  0  0  0  0  0  0  0  0  0
    6.1534    0.0051   -0.1054 N   0  0  0  0  0  0  0  0  0  0  0  0
    6.7738   -0.5663    0.7384 O   0  0  0  0  0  0  0  0  0  0  0  0
  1  3  3  0  0  0  0
  2  7  1  0  0  0  0
  2  5  3  0  0  0  0
  4  6  3  0  0  0  0
  7  3  1  0  0  0  0
  7  4  1  0  0  0  0
  7 12  1  0  0  0  0
  7  8  1  0  0  0  0
  7 10  1  0  0  0  0
  8  9  3  0  0  0  0
 10 11  3  0  0  0  0
 12 13  2  0  0  0  0
M  CHG  1   7  -2
M  END
