
 OpenBabel10141417573D

 43 43  0  0  0  0  0  0  0  0999 V2000
   31.2270   -7.7564   -4.3369 C   0  0  0  0  0  0  0  0  0  0  0  0
   31.7864   -8.7777   -3.3623 C   0  0  0  0  0  0  0  0  0  0  0  0
   33.2595   -9.0447   -3.5888 C   0  0  0  0  0  0  0  0  0  0  0  0
   33.9397  -10.1219   -2.7328 C   0  0  0  0  0  0  0  0  0  0  0  0
   34.0778  -10.0729   -1.1881 C   0  0  0  0  0  0  0  0  0  0  0  0
   32.9018  -10.2592   -0.1834 C   0  0  0  0  0  0  0  0  0  0  0  0
   31.9702   -9.0578    0.0309 C   0  0  0  0  0  0  0  0  0  0  0  0
   30.8751   -9.1106    1.1211 C   0  0  0  0  0  0  0  0  0  0  0  0
   29.8692  -10.2620    0.9092 C   0  0  0  0  0  0  0  0  0  0  0  0
   28.7522  -10.3783    1.9301 C   0  0  0  0  0  0  0  0  0  0  0  0
   29.0924  -10.9515    3.1822 C   0  0  0  0  0  0  0  0  0  0  0  0
   28.0974  -11.2315    4.1212 C   0  0  0  0  0  0  0  0  0  0  0  0
   26.7701  -11.0764    3.8746 C   0  0  0  0  0  0  0  0  0  0  0  0
   26.4120  -10.4173    2.6619 C   0  0  0  0  0  0  0  0  0  0  0  0
   27.4275  -10.0452    1.7432 C   0  0  0  0  0  0  0  0  0  0  0  0
   25.8759  -11.7086    4.7022 O   0  0  0  0  0  0  0  0  0  0  0  0
   24.6928  -11.0136    5.1189 C   0  0  0  0  0  0  0  0  0  0  0  0
   23.3368  -11.5639    4.5966 C   0  0  0  0  0  0  0  0  0  0  0  0
   22.9580  -11.2522    3.2408 O   0  0  0  0  0  0  0  0  0  0  0  0
   22.7570   -9.8584    3.0283 C   0  0  0  0  0  0  0  0  0  0  0  0
   22.5101   -9.4916    1.5641 C   0  0  0  0  0  0  0  0  0  0  0  0
   22.4148   -8.0812    1.3338 O   0  0  0  0  0  0  0  0  0  0  0  0
   23.6476   -7.3467    1.3544 C   0  0  0  0  0  0  0  0  0  0  0  0
   24.1912   -7.0638    2.7617 C   0  0  0  0  0  0  0  0  0  0  0  0
   23.1585   -6.5706    3.6131 O   0  0  0  0  0  0  0  0  0  0  0  0
   23.5627   -6.4067    4.9692 C   0  0  0  0  0  0  0  0  0  0  0  0
   23.5465   -7.7064    5.7677 C   0  0  0  0  0  0  0  0  0  0  0  0
   24.0208   -7.5664    7.1014 O   0  0  0  0  0  0  0  0  0  0  0  0
   23.1457   -6.7531    7.8777 C   0  0  0  0  0  0  0  0  0  0  0  0
   23.6732   -6.5990    9.2896 C   0  0  0  0  0  0  0  0  0  0  0  0
   23.6104   -7.8460    9.9764 O   0  0  0  0  0  0  0  0  0  0  0  0
   23.9933   -7.6889   11.3413 C   0  0  0  0  0  0  0  0  0  0  0  0
   24.1473   -9.0365   12.0728 C   0  0  0  0  0  0  0  0  0  0  0  0
   25.1626   -9.9411   11.5761 O   0  0  0  0  0  0  0  0  0  0  0  0
   24.8578  -10.4923   10.2847 C   0  0  0  0  0  0  0  0  0  0  0  0
   25.9911  -11.3187    9.6034 C   0  0  0  0  0  0  0  0  0  0  0  0
   26.2996  -12.6673    9.9668 O   0  0  0  0  0  0  0  0  0  0  0  0
   27.1916  -13.3147    8.9998 C   0  0  0  0  0  0  0  0  0  0  0  0
   28.5733  -12.6609    8.6256 C   0  0  0  0  0  0  0  0  0  0  0  0
   29.6014  -12.7929    9.6241 O   0  0  0  0  0  0  0  0  0  0  0  0
   30.8865  -12.2497    9.2452 C   0  0  0  0  0  0  0  0  0  0  0  0
   31.8712  -13.2491    8.6047 C   0  0  0  0  0  0  0  0  0  0  0  0
   31.4015  -13.7842    7.3722 O   0  0  0  0  0  0  0  0  0  0  0  0
  1  2  1  0  0  0  0
  2  3  1  0  0  0  0
  3  4  1  0  0  0  0
  4  5  1  0  0  0  0
  5  6  1  0  0  0  0
  6  7  1  0  0  0  0
  7  8  1  0  0  0  0
  8  9  1  0  0  0  0
  9 10  1  0  0  0  0
 10 11  2  0  0  0  0
 10 15  1  0  0  0  0
 11 12  1  0  0  0  0
 12 13  2  0  0  0  0
 13 14  1  0  0  0  0
 13 16  1  0  0  0  0
 14 15  2  0  0  0  0
 16 17  1  0  0  0  0
 17 18  1  0  0  0  0
 18 19  1  0  0  0  0
 19 20  1  0  0  0  0
 20 21  1  0  0  0  0
 21 22  1  0  0  0  0
 22 23  1  0  0  0  0
 23 24  1  0  0  0  0
 24 25  1  0  0  0  0
 25 26  1  0  0  0  0
 26 27  1  0  0  0  0
 27 28  1  0  0  0  0
 28 29  1  0  0  0  0
 29 30  1  0  0  0  0
 30 31  1  0  0  0  0
 31 32  1  0  0  0  0
 32 33  1  0  0  0  0
 33 34  1  0  0  0  0
 34 35  1  0  0  0  0
 35 36  1  0  0  0  0
 36 37  1  0  0  0  0
 37 38  1  0  0  0  0
 38 39  1  0  0  0  0
 39 40  1  0  0  0  0
 40 41  1  0  0  0  0
 41 42  1  0  0  0  0
 42 43  1  0  0  0  0
M  END
