717
 OpenBabel10141417483D

 22 25  0  0  1  0  0  0  0  0999 V2000
    8.0177    3.2819   13.6620 O   0  0  0  0  0  0  0  0  0  0  0  0
    5.1368   -4.8898    8.1804 O   0  0  0  0  0  0  0  0  0  0  0  0
    6.6148    2.2000   10.8854 C   0  0  2  0  0  0  0  0  0  0  0  0
    8.1208    2.1109   11.3919 C   0  0  2  0  0  0  0  0  0  0  0  0
    6.0667    0.7333   10.3586 C   0  0  1  0  0  0  0  0  0  0  0  0
    6.5857    0.2599    8.9792 C   0  0  2  0  0  0  0  0  0  0  0  0
    8.7197    1.3885   10.0644 C   0  0  0  0  0  0  0  0  0  0  0  0
    7.8124    1.9696   13.0426 C   0  0  2  0  0  0  0  0  0  0  0  0
    5.7588    2.6464   12.0850 C   0  0  0  0  0  0  0  0  0  0  0  0
    8.1033    0.3829    9.0438 C   0  0  0  0  0  0  0  0  0  0  0  0
    6.0683   -1.2293    8.6200 C   0  0  2  0  0  0  0  0  0  0  0  0
    6.2867    1.8558   13.2556 C   0  0  0  0  0  0  0  0  0  0  0  0
    6.3421   -0.3881   11.3843 C   0  0  0  0  0  0  0  0  0  0  0  0
    9.2397    3.2399   11.4180 C   0  0  0  0  0  0  0  0  0  0  0  0
    6.8597   -1.7536   11.0101 C   0  0  0  0  0  0  0  0  0  0  0  0
    6.4986   -2.2380    9.6687 C   0  0  0  0  0  0  0  0  0  0  0  0
    6.2762   -1.7949    7.1558 C   0  0  0  0  0  0  0  0  0  0  0  0
    8.4668    1.0552   13.9603 C   0  0  0  0  0  0  0  0  0  0  0  0
    6.5797   -3.3105    7.0428 C   0  0  0  0  0  0  0  0  0  0  0  0
    6.5287   -3.5670    9.5006 C   0  0  0  0  0  0  0  0  0  0  0  0
    6.0017   -4.0259    8.2229 C   0  0  0  0  0  0  0  0  0  0  0  0
    8.6594    0.5610   15.0717 C   0  0  0  0  0  0  0  0  0  0  0  0
  2 21  2  0  0  0  0
  3  4  1  0  0  0  0
  3  5  1  0  0  0  0
  3  9  1  6  0  0  0
  4  7  1  0  0  0  0
  4  8  1  0  0  0  0
  4 14  1  6  0  0  0
  5  6  1  0  0  0  0
  5 13  1  1  0  0  0
  6 10  1  6  0  0  0
  6 11  1  0  0  0  0
  7 10  1  0  0  0  0
  8 12  1  0  0  0  0
  8 18  1  1  0  0  0
  8  1  1  0  0  0  0
  9 12  1  0  0  0  0
 11 16  1  1  0  0  0
 11 17  1  0  0  0  0
 13 15  1  0  0  0  0
 15 16  1  0  0  0  0
 16 20  2  0  0  0  0
 17 19  1  0  0  0  0
 18 22  3  0  0  0  0
 19 21  1  0  0  0  0
 20 21  1  0  0  0  0
M  END
