368
 OpenBabel10141419023D

 12 12  0  0  1  0  0  0  0  0999 V2000
    2.8412   -1.1030   -0.6682 O   0  0  0  0  0  0  0  0  0  0  0  0
   -1.8438   -0.4917   -2.5131 O   0  0  0  0  0  0  0  0  0  0  0  0
   -3.3044    0.4555   -0.4370 O   0  0  0  0  0  0  0  0  0  0  0  0
    4.4941    1.1521   -0.0688 N   0  0  0  0  0  0  0  0  0  0  0  0
    2.3156   -0.0549    0.1551 C   0  0  2  0  0  0  0  0  0  0  0  0
    0.8162    0.0553   -0.0246 C   0  0  0  0  0  0  0  0  0  0  0  0
    3.0302    1.2701   -0.1939 C   0  0  0  0  0  0  0  0  0  0  0  0
    0.1898   -0.2920   -1.2330 C   0  0  0  0  0  0  0  0  0  0  0  0
    0.0277    0.5451    1.0358 C   0  0  0  0  0  0  0  0  0  0  0  0
   -1.1893   -0.1579   -1.3592 C   0  0  0  0  0  0  0  0  0  0  0  0
   -1.3558    0.6792    0.8987 C   0  0  0  0  0  0  0  0  0  0  0  0
   -1.9523    0.3257   -0.2996 C   0  0  0  0  0  0  0  0  0  0  0  0
  2 10  1  0  0  0  0
  3 12  1  0  0  0  0
  4  7  1  0  0  0  0
  5  7  1  6  0  0  0
  5  6  1  0  0  0  0
  5  1  1  0  0  0  0
  6  8  2  0  0  0  0
  6  9  1  0  0  0  0
  8 10  1  0  0  0  0
  9 11  2  0  0  0  0
 10 12  2  0  0  0  0
 11 12  1  0  0  0  0
M  END
