1059
 OpenBabel10141417523D

 23 25  0  0  0  0  0  0  0  0999 V2000
    0.9231   -0.1610   -0.2999 F   0  0  0  0  0  0  0  0  0  0  0  0
    4.4532   -3.5634    0.4626 O   0  0  0  0  0  0  0  0  0  0  0  0
    6.6642   -4.8200    0.7461 O   0  0  0  0  0  0  0  0  0  0  0  0
    8.5536   -3.6132    0.9838 O   0  0  0  0  0  0  0  0  0  0  0  0
    2.2236    2.4417   -0.1500 N   0  0  0  0  0  0  0  0  0  0  0  0
    0.1947    4.5560    0.1761 N   0  0  0  0  0  0  0  0  0  0  0  0
    6.4191   -0.0050    0.6358 N   0  0  0  0  0  0  0  0  0  0  0  0
    0.9814    2.4525   -0.9569 C   0  0  0  0  0  0  0  0  0  0  0  0
    2.0775    3.1531    1.1450 C   0  0  0  0  0  0  0  0  0  0  0  0
    0.4474    3.8928   -1.1207 C   0  0  0  0  0  0  0  0  0  0  0  0
    1.4555    4.5576    0.9452 C   0  0  0  0  0  0  0  0  0  0  0  0
    2.8748    1.1943   -0.0058 C   0  0  0  0  0  0  0  0  0  0  0  0
    5.0247    0.0182    0.3989 C   0  0  0  0  0  0  0  0  0  0  0  0
    4.2696    1.1973    0.2335 C   0  0  0  0  0  0  0  0  0  0  0  0
    4.3206   -1.2010    0.3169 C   0  0  0  0  0  0  0  0  0  0  0  0
    2.2433   -0.0576   -0.0889 C   0  0  0  0  0  0  0  0  0  0  0  0
    2.9467   -1.2426    0.0731 C   0  0  0  0  0  0  0  0  0  0  0  0
    7.1866    1.2517    0.7233 C   0  0  0  0  0  0  0  0  0  0  0  0
    5.0415   -2.4836    0.4869 C   0  0  0  0  0  0  0  0  0  0  0  0
    7.0685   -1.2316    0.7348 C   0  0  0  0  0  0  0  0  0  0  0  0
    6.5018   -2.4453    0.6805 C   0  0  0  0  0  0  0  0  0  0  0  0
    7.7133    1.6673   -0.6425 C   0  0  0  0  0  0  0  0  0  0  0  0
    7.3410   -3.6528    0.8180 C   0  0  0  0  0  0  0  0  0  0  0  0
  1 16  1  0  0  0  0
  2 19  2  0  0  0  0
  3 23  1  0  0  0  0
  4 23  2  0  0  0  0
  5  8  1  0  0  0  0
  5  9  1  0  0  0  0
  5 12  1  0  0  0  0
  6 10  1  0  0  0  0
  6 11  1  0  0  0  0
  7 13  1  0  0  0  0
  7 18  1  0  0  0  0
  7 20  1  0  0  0  0
  8 10  1  0  0  0  0
  9 11  1  0  0  0  0
 12 14  1  0  0  0  0
 12 16  2  0  0  0  0
 13 14  2  0  0  0  0
 13 15  1  0  0  0  0
 15 17  2  0  0  0  0
 15 19  1  0  0  0  0
 16 17  1  0  0  0  0
 18 22  1  0  0  0  0
 19 21  1  0  0  0  0
 20 21  2  0  0  0  0
 21 23  1  0  0  0  0
M  END
