957
 OpenBabel10141417523D

 27 30  0  0  1  0  0  0  0  0999 V2000
   -0.7032    3.5345    0.7570 O   0  0  0  0  0  0  0  0  0  0  0  0
   -0.8581    5.1863    2.3675 O   0  0  0  0  0  0  0  0  0  0  0  0
    5.1598    5.4381   -9.0715 O   0  0  0  0  0  0  0  0  0  0  0  0
    4.2259    6.3023   -8.4904 N   0  0  0  0  0  0  0  0  0  0  0  0
   -0.2041    3.8234   -1.6278 C   0  0  1  0  0  0  0  0  0  0  0  0
    0.9935    4.8530   -1.4736 C   0  0  2  0  0  0  0  0  0  0  0  0
    1.6205    5.3765   -2.7996 C   0  0  1  0  0  0  0  0  0  0  0  0
    1.6329    4.2778   -3.8712 C   0  0  2  0  0  0  0  0  0  0  0  0
   -1.1729    4.2483   -0.4238 C   0  0  2  0  0  0  0  0  0  0  0  0
   -0.8058    4.0127   -3.0539 C   0  0  0  0  0  0  0  0  0  0  0  0
    0.5121    5.9807   -0.5433 C   0  0  0  0  0  0  0  0  0  0  0  0
    0.2041    3.8085   -4.2057 C   0  0  0  0  0  0  0  0  0  0  0  0
   -0.9811    5.7661   -0.3771 C   0  0  0  0  0  0  0  0  0  0  0  0
    2.5007    4.7642   -5.0507 C   0  0  2  0  0  0  0  0  0  0  0  0
    1.0635    6.7149   -3.3513 C   0  0  0  0  0  0  0  0  0  0  0  0
    0.3192    2.3477   -1.4787 C   0  0  0  0  0  0  0  0  0  0  0  0
    1.0256    6.8722   -4.8751 C   0  0  0  0  0  0  0  0  0  0  0  0
    2.0545    6.0839   -5.6308 C   0  0  0  0  0  0  0  0  0  0  0  0
    2.6882    3.7432   -6.1723 C   0  0  0  0  0  0  0  0  0  0  0  0
   -2.5911    3.9257   -0.6823 C   0  0  0  0  0  0  0  0  0  0  0  0
   -0.7355    1.2516   -1.6097 C   0  0  0  0  0  0  0  0  0  0  0  0
    3.7458    4.2507   -7.1546 C   0  0  0  0  0  0  0  0  0  0  0  0
    2.5564    6.5267   -6.7958 C   0  0  0  0  0  0  0  0  0  0  0  0
    3.5489    5.7116   -7.5463 C   0  0  0  0  0  0  0  0  0  0  0  0
   -0.5203    4.0779    1.9831 C   0  0  0  0  0  0  0  0  0  0  0  0
   -3.7420    3.7346   -0.9507 C   0  0  0  0  0  0  0  0  0  0  0  0
    0.2426    3.1230    2.8526 C   0  0  0  0  0  0  0  0  0  0  0  0
  1 25  1  0  0  0  0
  2 25  2  0  0  0  0
  3  4  1  0  0  0  0
  4 24  2  0  0  0  0
  5  6  1  0  0  0  0
  5  9  1  0  0  0  0
  5 10  1  0  0  0  0
  5 16  1  1  0  0  0
  6  7  1  0  0  0  0
  6 11  1  1  0  0  0
  7  8  1  0  0  0  0
  7 15  1  6  0  0  0
  8 12  1  1  0  0  0
  8 14  1  0  0  0  0
  9 13  1  0  0  0  0
  9  1  1  1  0  0  0
  9 20  1  0  0  0  0
 10 12  1  0  0  0  0
 11 13  1  0  0  0  0
 14 18  1  6  0  0  0
 14 19  1  0  0  0  0
 15 17  1  0  0  0  0
 16 21  1  0  0  0  0
 17 18  1  0  0  0  0
 18 23  2  0  0  0  0
 19 22  1  0  0  0  0
 20 26  3  0  0  0  0
 22 24  1  0  0  0  0
 23 24  1  0  0  0  0
 25 27  1  0  0  0  0
M  END
