540
 OpenBabel10141418343D

 20 22  0  0  0  0  0  0  0  0999 V2000
   -0.7214    0.5789    0.9822 N   0  0  0  0  0  0  0  0  0  0  0  0
   -5.0498   -3.2132    1.9144 C   0  0  0  0  0  0  0  0  0  0  0  0
   -5.2850   -4.6797    1.5311 C   0  0  0  0  0  0  0  0  0  0  0  0
   -5.4331   -2.2687    0.8023 C   0  0  0  0  0  0  0  0  0  0  0  0
   -4.4393   -5.3226    0.4429 C   0  0  0  0  0  0  0  0  0  0  0  0
   -3.5138   -3.1496   -0.4977 C   0  0  0  0  0  0  0  0  0  0  0  0
   -4.6993   -2.2765   -0.3946 C   0  0  0  0  0  0  0  0  0  0  0  0
   -3.6320   -4.6328   -0.4881 C   0  0  0  0  0  0  0  0  0  0  0  0
   -2.2747   -2.6013   -0.4553 C   0  0  0  0  0  0  0  0  0  0  0  0
   -6.5266   -1.4027    0.9314 C   0  0  0  0  0  0  0  0  0  0  0  0
   -4.5255   -6.7294    0.3501 C   0  0  0  0  0  0  0  0  0  0  0  0
   -5.0977   -1.4659   -1.4656 C   0  0  0  0  0  0  0  0  0  0  0  0
   -2.9524   -5.3704   -1.4804 C   0  0  0  0  0  0  0  0  0  0  0  0
   -1.9046   -1.1383   -0.3468 C   0  0  0  0  0  0  0  0  0  0  0  0
   -6.9001   -0.5756   -0.1295 C   0  0  0  0  0  0  0  0  0  0  0  0
   -3.8335   -7.4418   -0.6284 C   0  0  0  0  0  0  0  0  0  0  0  0
   -1.0502   -0.8503    0.9002 C   0  0  0  0  0  0  0  0  0  0  0  0
   -6.1944   -0.6158   -1.3310 C   0  0  0  0  0  0  0  0  0  0  0  0
   -3.0463   -6.7601   -1.5464 C   0  0  0  0  0  0  0  0  0  0  0  0
    0.0884    0.8671    2.1590 C   0  0  0  0  0  0  0  0  0  0  0  0
  1 17  1  0  0  0  0
  1 20  1  0  0  0  0
  2  3  1  0  0  0  0
  2  4  1  0  0  0  0
  3  5  1  0  0  0  0
  4  7  1  0  0  0  0
  4 10  2  0  0  0  0
  5  8  1  0  0  0  0
  5 11  2  0  0  0  0
  6  7  1  0  0  0  0
  6  8  1  0  0  0  0
  6  9  2  0  0  0  0
  7 12  2  0  0  0  0
  8 13  2  0  0  0  0
  9 14  1  0  0  0  0
 10 15  1  0  0  0  0
 11 16  1  0  0  0  0
 12 18  1  0  0  0  0
 13 19  1  0  0  0  0
 14 17  1  0  0  0  0
 15 18  2  0  0  0  0
 16 19  2  0  0  0  0
M  END
