[NO NAME]
 OpenBabel10141418023D
Created with ChemWriter - http://chemwriter.com
 71 75  0  0  1  0  0  0  0  0999 V2000
   -7.0992   -5.7036   -8.7388 C   0  0  0  0  0  0  0  0  0  0  0  0
   -5.8678   -6.6498   -9.1269 C   0  0  1  0  0  0  0  0  0  0  0  0
   -7.9795   -5.4496   -9.5670 O   0  0  0  0  0  0  0  0  0  0  0  0
   -5.6064   -6.8055  -10.6408 N   0  0  0  0  0  0  0  0  0  0  0  0
   -4.3399   -5.1928   -7.0201 S   0  0  0  0  0  0  0  0  0  0  0  0
   -4.4950   -6.2801   -8.4874 C   0  0  0  0  0  0  0  0  0  0  0  0
   -7.1960   -5.2896   -7.4129 N   0  0  0  0  0  0  0  0  0  0  0  0
   -4.9513   -7.9309  -12.8664 C   0  0  2  0  0  0  0  0  0  0  0  0
   -5.5507   -8.0045  -11.3627 C   0  0  0  0  0  0  0  0  0  0  0  0
   -5.8733   -9.0722  -10.8278 O   0  0  0  0  0  0  0  0  0  0  0  0
   -6.0200   -8.1733  -13.9708 C   0  0  3  0  0  0  0  0  0  0  0  0
   -3.7876   -8.8297  -13.0244 N   0  0  0  0  0  0  0  0  0  0  0  0
   -6.5896   -9.4804  -13.8475 O   0  0  0  0  0  0  0  0  0  0  0  0
   -5.5062   -8.0753  -15.4129 C   0  0  0  0  0  0  0  0  0  0  0  0
   -2.6534   -8.4099  -13.7178 C   0  0  0  0  0  0  0  0  0  0  0  0
   -2.7253   -7.6459  -14.6782 O   0  0  0  0  0  0  0  0  0  0  0  0
   -1.2872   -8.8481  -13.1122 C   0  0  1  0  0  0  0  0  0  0  0  0
   -0.4277   -7.6671  -12.8746 N   0  0  0  0  0  0  0  0  0  0  0  0
    0.6208  -13.2202  -13.0573 N   0  0  0  0  0  0  0  0  0  0  0  0
   -0.1733  -12.2902  -12.2734 C   0  0  0  0  0  0  0  0  0  0  0  0
   -1.5053   -9.5934  -11.7895 C   0  0  0  0  0  0  0  0  0  0  0  0
    0.6206  -11.0393  -11.9025 C   0  0  0  0  0  0  0  0  0  0  0  0
   -0.2358  -10.0678  -11.0980 C   0  0  0  0  0  0  0  0  0  0  0  0
    2.8675   -5.7618  -15.3316 C   0  0  0  0  0  0  0  0  0  0  0  0
    3.3619   -6.4179  -17.4137 N   0  0  0  0  0  0  0  0  0  0  0  0
    2.5082   -5.6566  -16.6655 C   0  0  0  0  0  0  0  0  0  0  0  0
    4.0815   -6.5476  -15.3073 C   0  0  0  0  0  0  0  0  0  0  0  0
    0.6063   -7.2881  -13.7059 C   0  0  0  0  0  0  0  0  0  0  0  0
    2.0689   -5.1744  -14.1825 C   0  0  0  0  0  0  0  0  0  0  0  0
    4.3088   -7.0017  -16.6106 C   0  0  0  0  0  0  0  0  0  0  0  0
    1.5756   -6.1955  -13.1222 C   0  0  1  0  0  0  0  0  0  0  0  0
    0.8160   -7.8742  -14.7684 O   0  0  0  0  0  0  0  0  0  0  0  0
    1.0670   -5.5456  -11.8620 N   0  0  0  0  0  0  0  0  0  0  0  0
    4.9935   -6.9648  -14.3109 C   0  0  0  0  0  0  0  0  0  0  0  0
    5.3306   -7.8984  -16.9531 C   0  0  0  0  0  0  0  0  0  0  0  0
    6.0470   -7.8350  -14.6446 C   0  0  0  0  0  0  0  0  0  0  0  0
    6.1972   -8.3128  -15.9432 C   0  0  0  0  0  0  0  0  0  0  0  0
    1.4654   -6.0762  -10.6226 C   0  0  0  0  0  0  0  0  0  0  0  0
    1.1842   -5.2115   -9.3543 C   0  0  2  0  0  0  0  0  0  0  0  0
    2.1263   -7.0855  -10.5803 O   0  0  0  0  0  0  0  0  0  0  0  0
    1.5240   -5.9117   -7.9874 C   0  0  0  0  0  0  0  0  0  0  0  0
   -0.1154   -4.5214   -9.3176 N   0  0  0  0  0  0  0  0  0  0  0  0
    0.7041   -7.0892   -7.4738 C   0  0  0  0  0  0  0  0  0  0  0  0
    0.6773   -8.3143   -8.1387 C   0  0  0  0  0  0  0  0  0  0  0  0
    0.0559   -7.0441   -6.2284 C   0  0  0  0  0  0  0  0  0  0  0  0
   -0.7495   -8.1029   -5.7748 C   0  0  0  0  0  0  0  0  0  0  0  0
   -0.0538   -9.4041   -7.6471 C   0  0  0  0  0  0  0  0  0  0  0  0
   -0.8142   -9.2853   -6.4949 C   0  0  0  0  0  0  0  0  0  0  0  0
   -0.1852   -3.2590   -8.7592 C   0  0  0  0  0  0  0  0  0  0  0  0
   -1.5754   -2.7959   -8.2667 C   0  0  1  0  0  0  0  0  0  0  0  0
    0.8362   -2.5992   -8.5128 O   0  0  0  0  0  0  0  0  0  0  0  0
   -2.6749   -3.0145   -9.1897 N   0  0  0  0  0  0  0  0  0  0  0  0
   -2.3345   -5.0572   -6.7162 S   0  0  0  0  0  0  0  0  0  0  0  0
   -1.8488   -3.2952   -6.8539 C   0  0  0  0  0  0  0  0  0  0  0  0
   -3.2758   -1.9841   -9.8277 C   0  0  0  0  0  0  0  0  0  0  0  0
   -4.4587   -2.3416  -10.7955 C   0  0  1  0  0  0  0  0  0  0  0  0
   -2.8232   -0.7954   -9.6790 O   0  0  0  0  0  0  0  0  0  0  0  0
   -5.9178   -1.9585  -10.3542 C   0  0  0  0  0  0  0  0  0  0  0  0
   -4.0759   -1.7927  -12.1154 N   0  0  0  0  0  0  0  0  0  0  0  0
   -6.3200   -0.5009  -10.2179 C   0  0  0  0  0  0  0  0  0  0  0  0
   -7.6098   -0.0464  -10.5228 C   0  0  0  0  0  0  0  0  0  0  0  0
   -5.4403    0.4505   -9.7071 C   0  0  0  0  0  0  0  0  0  0  0  0
   -5.6711    1.8158   -9.7933 C   0  0  0  0  0  0  0  0  0  0  0  0
   -7.9200    1.3231  -10.4373 C   0  0  0  0  0  0  0  0  0  0  0  0
   -6.9272    2.2602  -10.1519 C   0  0  0  0  0  0  0  0  0  0  0  0
   -8.1542   -4.3570   -6.7385 C   0  0  2  0  0  0  0  0  0  0  0  0
   -7.5814   -2.9206   -6.5297 C   0  0  0  0  0  0  0  0  0  0  0  0
   -6.3708   -2.9348   -5.7684 O   0  0  0  0  0  0  0  0  0  0  0  0
   -9.5613   -4.2453   -7.3606 C   0  0  2  0  0  0  0  0  0  0  0  0
  -10.3848   -3.4351   -6.5023 O   0  0  0  0  0  0  0  0  0  0  0  0
  -10.2750   -5.5785   -7.5261 C   0  0  0  0  0  0  0  0  0  0  0  0
  1  3  2  0  0  0  0
  1  7  1  0  0  0  0
  2  4  1  0  0  0  0
  2  6  1  0  0  0  0
  2  1  1  6  0  0  0
  4  9  1  0  0  0  0
  5  6  1  0  0  0  0
  5 53  1  0  0  0  0
  8  9  1  1  0  0  0
  8 12  1  0  0  0  0
  8 11  1  0  0  0  0
  9 10  2  0  0  0  0
 11 13  1  0  0  0  0
 11 14  1  0  0  0  0
 12 15  1  0  0  0  0
 15 16  2  0  0  0  0
 15 17  1  0  0  0  0
 17 18  1  0  0  0  0
 17 21  1  1  0  0  0
 18 28  1  0  0  0  0
 19 20  1  0  0  0  0
 20 22  1  0  0  0  0
 21 23  1  0  0  0  0
 22 23  1  0  0  0  0
 24 26  2  0  0  0  0
 24 27  1  0  0  0  0
 24 29  1  0  0  0  0
 25 26  1  0  0  0  0
 25 30  1  0  0  0  0
 27 30  2  0  0  0  0
 27 34  1  0  0  0  0
 28 31  1  0  0  0  0
 28 32  2  0  0  0  0
 30 35  1  0  0  0  0
 31 29  1  6  0  0  0
 31 33  1  0  0  0  0
 33 38  1  0  0  0  0
 34 36  2  0  0  0  0
 35 37  2  0  0  0  0
 36 37  1  0  0  0  0
 38 39  1  0  0  0  0
 38 40  2  0  0  0  0
 39 42  1  0  0  0  0
 39 41  1  1  0  0  0
 41 43  1  0  0  0  0
 42 49  1  0  0  0  0
 43 44  1  0  0  0  0
 43 45  2  0  0  0  0
 44 47  2  0  0  0  0
 45 46  1  0  0  0  0
 46 48  2  0  0  0  0
 47 48  1  0  0  0  0
 49 50  1  0  0  0  0
 49 51  2  0  0  0  0
 50 52  1  6  0  0  0
 50 54  1  0  0  0  0
 52 55  1  0  0  0  0
 53 54  1  0  0  0  0
 55 57  2  0  0  0  0
 56 55  1  1  0  0  0
 56 58  1  0  0  0  0
 56 59  1  0  0  0  0
 58 60  1  0  0  0  0
 60 61  1  0  0  0  0
 60 62  2  0  0  0  0
 61 64  2  0  0  0  0
 62 63  1  0  0  0  0
 63 65  2  0  0  0  0
 64 65  1  0  0  0  0
 66 67  1  1  0  0  0
 66  7  1  0  0  0  0
 67 68  1  0  0  0  0
 69 71  1  1  0  0  0
 69 70  1  0  0  0  0
 69 66  1  0  0  0  0
M  END
