
 OpenBabel10141417543D

 22 25  0  0  0  0  0  0  0  0999 V2000
   -0.4719    1.8021    0.5170 N   0  0  0  0  0  0  0  0  0  0  0  0
   -1.6902    1.4967    0.2064 C   0  0  0  0  0  0  0  0  0  0  0  0
   -2.1572    0.1973   -0.2670 C   0  0  0  0  0  0  0  0  0  0  0  0
    0.9026   -0.0884   -0.4280 C   0  0  0  0  0  0  0  0  0  0  0  0
    0.6716    0.9963    0.4404 C   0  0  0  0  0  0  0  0  0  0  0  0
    1.7284    1.4314    1.2628 C   0  0  0  0  0  0  0  0  0  0  0  0
    2.9865    0.8301    1.2381 C   0  0  0  0  0  0  0  0  0  0  0  0
    2.1915   -0.6686   -0.4619 C   0  0  0  0  0  0  0  0  0  0  0  0
    3.2210   -0.2204    0.3658 C   0  0  0  0  0  0  0  0  0  0  0  0
   -0.0703   -0.6474   -1.2889 N   0  0  0  0  0  0  0  0  0  0  0  0
   -1.3844   -0.7032   -0.9702 C   0  0  0  0  0  0  0  0  0  0  0  0
   -3.4958   -0.3199   -0.0880 C   0  0  0  0  0  0  0  0  0  0  0  0
   -2.2933   -2.0630   -1.4964 S   0  0  0  0  0  0  0  0  0  0  0  0
   -3.7025   -1.5337   -0.7022 C   0  0  0  0  0  0  0  0  0  0  0  0
   -2.7281    2.4207    0.3400 N   0  0  0  0  0  0  0  0  0  0  0  0
   -4.9420   -2.3570   -0.7434 C   0  0  0  0  0  0  0  0  0  0  0  0
   -3.3968    2.8887   -0.8967 C   0  0  0  0  0  0  0  0  0  0  0  0
   -2.5416    3.5282    1.3025 C   0  0  0  0  0  0  0  0  0  0  0  0
   -2.6582    4.1016   -1.5098 C   0  0  0  0  0  0  0  0  0  0  0  0
   -1.8313    4.7422    0.6597 C   0  0  0  0  0  0  0  0  0  0  0  0
   -2.4523    5.2419   -0.5894 N   0  0  0  0  0  0  0  0  0  0  0  0
   -3.6940    5.9643   -0.3278 C   0  0  0  0  0  0  0  0  0  0  0  0
  1  2  2  0  0  0  0
  1  5  1  0  0  0  0
  2  3  1  0  0  0  0
  2 15  1  0  0  0  0
  3 11  2  0  0  0  0
  4  5  1  0  0  0  0
  6  5  2  0  0  0  0
  6  7  1  0  0  0  0
  7  9  2  0  0  0  0
  8  4  2  0  0  0  0
  9  8  1  0  0  0  0
 10  4  1  0  0  0  0
 11 10  1  0  0  0  0
 11 13  1  0  0  0  0
 12  3  1  0  0  0  0
 12 14  2  0  0  0  0
 13 14  1  0  0  0  0
 14 16  1  0  0  0  0
 15 17  1  0  0  0  0
 15 18  1  0  0  0  0
 17 19  1  0  0  0  0
 18 20  1  0  0  0  0
 19 21  1  0  0  0  0
 20 21  1  0  0  0  0
 21 22  1  0  0  0  0
M  END
