
 OpenBabel10141417483D

 33 36  0  0  0  0  0  0  0  0999 V2000
   -0.6386   -4.6704    2.5898 C   0  0  0  0  0  0  0  0  0  0  0  0
   -0.1577   -6.0003    2.4661 C   0  0  0  0  0  0  0  0  0  0  0  0
    0.5708   -6.7265    3.5731 C   0  0  0  0  0  0  0  0  0  0  0  0
    1.1217   -8.0510    3.5606 C   0  0  0  0  0  0  0  0  0  0  0  0
    1.2484   -9.0121    2.4358 C   0  0  0  0  0  0  0  0  0  0  0  0
    1.5582   -8.7650    1.1197 N   0  0  0  0  0  0  0  0  0  0  0  0
   -1.6004   -4.5791    0.3594 C   0  0  0  0  0  0  0  0  0  0  0  0
   -1.3688   -3.9856    1.5879 C   0  0  0  0  0  0  0  0  0  0  0  0
   -0.4581   -6.5678    1.2435 C   0  0  0  0  0  0  0  0  0  0  0  0
   -0.9918   -5.8258    0.1855 C   0  0  0  0  0  0  0  0  0  0  0  0
    1.6025   -8.5885    4.7904 C   0  0  0  0  0  0  0  0  0  0  0  0
    1.6350   -7.8660    5.9812 C   0  0  0  0  0  0  0  0  0  0  0  0
    1.2030   -6.5629    5.9829 C   0  0  0  0  0  0  0  0  0  0  0  0
    0.6862   -6.0226    4.8101 C   0  0  0  0  0  0  0  0  0  0  0  0
    1.4938   -9.8928    0.3943 N   0  0  0  0  0  0  0  0  0  0  0  0
    1.3167  -10.8557    1.2815 N   0  0  0  0  0  0  0  0  0  0  0  0
    1.1849  -10.3336    2.5424 N   0  0  0  0  0  0  0  0  0  0  0  0
   -2.3922   -3.9315   -0.7768 C   0  0  0  0  0  0  0  0  0  0  0  0
   -4.7655   -2.9258   -0.8024 C   0  0  0  0  0  0  0  0  0  0  0  0
   -6.0066   -3.3474   -0.7746 N   0  0  0  0  0  0  0  0  0  0  0  0
   -3.8779   -4.0116   -0.7538 N   0  0  0  0  0  0  0  0  0  0  0  0
   -4.4268   -1.4706   -0.9191 C   0  0  0  0  0  0  0  0  0  0  0  0
   -5.6516   -0.5271   -0.9988 C   0  0  0  0  0  0  0  0  0  0  0  0
   -5.1613    0.9133   -1.1084 C   0  0  0  0  0  0  0  0  0  0  0  0
   -4.6661   -5.1514   -1.0197 C   0  0  0  0  0  0  0  0  0  0  0  0
   -4.2269   -6.4711   -1.3206 C   0  0  0  0  0  0  0  0  0  0  0  0
   -4.8087   -7.3575   -1.9583 O   0  0  0  0  0  0  0  0  0  0  0  0
   -3.0849   -6.7736   -0.7568 O   0  0  0  0  0  0  0  0  0  0  0  0
   -5.9833   -4.7069   -0.9347 C   0  0  0  0  0  0  0  0  0  0  0  0
   -7.3280   -5.4051   -1.0170 C   0  0  0  0  0  0  0  0  0  0  0  0
   -8.1401   -5.1275    0.2567 C   0  0  0  0  0  0  0  0  0  0  0  0
   -8.1043   -4.9034   -2.2408 C   0  0  0  0  0  0  0  0  0  0  0  0
   -7.2665   -6.8273   -1.1503 O   0  0  0  0  0  0  0  0  0  0  0  0
  1  2  1  0  0  0  0
  2  9  2  0  0  0  0
  2  3  1  0  0  0  0
  3 14  1  0  0  0  0
  3  4  2  0  0  0  0
  4 11  1  0  0  0  0
  4  5  1  0  0  0  0
  5 17  2  0  0  0  0
  5  6  1  0  0  0  0
  6 15  1  0  0  0  0
  7  8  1  0  0  0  0
  7 10  2  0  0  0  0
  8  1  2  0  0  0  0
  9 10  1  0  0  0  0
 11 12  2  0  0  0  0
 12 13  1  0  0  0  0
 13 14  2  0  0  0  0
 15 16  2  0  0  0  0
 16 17  1  0  0  0  0
 18  7  1  0  0  0  0
 19 20  2  0  0  0  0
 19 21  1  0  0  0  0
 19 22  1  0  0  0  0
 20 29  1  0  0  0  0
 21 18  1  0  0  0  0
 22 23  1  0  0  0  0
 23 24  1  0  0  0  0
 25 21  1  0  0  0  0
 25 26  1  0  0  0  0
 26 28  1  0  0  0  0
 26 27  2  0  0  0  0
 29 25  2  0  0  0  0
 29 30  1  0  0  0  0
 30 33  1  0  0  0  0
 30 31  1  0  0  0  0
 30 32  1  0  0  0  0
M  END
