768
 OpenBabel10141417493D

 25 27  0  0  0  0  0  0  0  0999 V2000
    0.7764    2.6435    1.1154 O   0  0  0  0  0  0  0  0  0  0  0  0
   -2.3269   -2.1229    4.9926 O   0  0  0  0  0  0  0  0  0  0  0  0
   -3.7983   -0.4827    5.3156 O   0  0  0  0  0  0  0  0  0  0  0  0
   -3.4006   -2.5587    0.4785 N   0  0  0  0  0  0  0  0  0  0  0  0
    0.8914   -0.1390    1.1364 C   0  0  0  0  0  0  0  0  0  0  0  0
    0.3170    0.5992    2.2803 C   0  0  0  0  0  0  0  0  0  0  0  0
    2.3212    0.0384    0.7621 C   0  0  0  0  0  0  0  0  0  0  0  0
    2.9138    1.3194    0.7181 C   0  0  0  0  0  0  0  0  0  0  0  0
    0.2939    1.9948    2.2219 C   0  0  0  0  0  0  0  0  0  0  0  0
   -1.4333   -0.9303    0.3539 C   0  0  0  0  0  0  0  0  0  0  0  0
    0.0792   -0.8160    0.2878 C   0  0  0  0  0  0  0  0  0  0  0  0
    2.2087    2.6178    1.0874 C   0  0  0  0  0  0  0  0  0  0  0  0
   -1.9279   -2.3898    0.4491 C   0  0  0  0  0  0  0  0  0  0  0  0
   -0.2160   -0.0496    3.4032 C   0  0  0  0  0  0  0  0  0  0  0  0
   -0.8199    0.6894    4.4352 C   0  0  0  0  0  0  0  0  0  0  0  0
    3.1145   -1.0912    0.4848 C   0  0  0  0  0  0  0  0  0  0  0  0
   -0.2979    2.7425    3.2340 C   0  0  0  0  0  0  0  0  0  0  0  0
    4.2773    1.4271    0.3676 C   0  0  0  0  0  0  0  0  0  0  0  0
   -0.8466    2.0909    4.3410 C   0  0  0  0  0  0  0  0  0  0  0  0
   -1.4269   -0.0064    5.6307 C   0  0  0  0  0  0  0  0  0  0  0  0
    4.4614   -0.9612    0.1391 C   0  0  0  0  0  0  0  0  0  0  0  0
    5.0413    0.2994    0.0736 C   0  0  0  0  0  0  0  0  0  0  0  0
   -3.7418   -3.9846    0.5606 C   0  0  0  0  0  0  0  0  0  0  0  0
   -4.0245   -1.8390    1.5887 C   0  0  0  0  0  0  0  0  0  0  0  0
   -2.6383   -0.8460    5.3066 C   0  0  0  0  0  0  0  0  0  0  0  0
  1  9  1  0  0  0  0
  1 12  1  0  0  0  0
  2 25  1  0  0  0  0
  3 25  2  0  0  0  0
  4 13  1  0  0  0  0
  4 23  1  0  0  0  0
  4 24  1  0  0  0  0
  5  6  1  0  0  0  0
  5  7  1  0  0  0  0
  5 11  2  0  0  0  0
  6  9  2  0  0  0  0
  6 14  1  0  0  0  0
  7  8  1  0  0  0  0
  7 16  2  0  0  0  0
  8 12  1  0  0  0  0
  8 18  2  0  0  0  0
  9 17  1  0  0  0  0
 10 11  1  0  0  0  0
 10 13  1  0  0  0  0
 14 15  2  0  0  0  0
 15 19  1  0  0  0  0
 15 20  1  0  0  0  0
 16 21  1  0  0  0  0
 17 19  2  0  0  0  0
 18 22  1  0  0  0  0
 20 25  1  0  0  0  0
 21 22  2  0  0  0  0
M  END
