
 OpenBabel10141417513D

 22 23  0  0  0  0  0  0  0  0999 V2000
   -1.4128    0.5621    0.1289 C   0  0  0  0  0  0  0  0  0  0  0  0
   -1.1785    1.8949   -0.2363 C   0  0  0  0  0  0  0  0  0  0  0  0
   -2.6503   -0.0738   -0.0832 N   0  0  0  0  0  0  0  0  0  0  0  0
   -0.3620   -0.1802    0.6786 C   0  0  0  0  0  0  0  0  0  0  0  0
    0.0670    2.4917   -0.0222 C   0  0  0  0  0  0  0  0  0  0  0  0
   -3.6060    0.7288   -0.0110 N   0  0  0  0  0  0  0  0  0  0  0  0
    0.8914    0.4019    0.8843 C   0  0  0  0  0  0  0  0  0  0  0  0
    1.1030    1.7344    0.5362 C   0  0  0  0  0  0  0  0  0  0  0  0
    0.2851    3.9100   -0.3748 C   0  0  0  0  0  0  0  0  0  0  0  0
   -4.8297    0.1425   -0.3801 C   0  0  0  0  0  0  0  0  0  0  0  0
    2.3576    2.2298    0.7672 O   0  0  0  0  0  0  0  0  0  0  0  0
   -0.7937    4.4989   -0.9165 O   0  0  0  0  0  0  0  0  0  0  0  0
    1.3303    4.5091   -0.1933 O   0  0  0  0  0  0  0  0  0  0  0  0
   -4.9216   -0.8972   -1.3145 C   0  0  0  0  0  0  0  0  0  0  0  0
   -6.0078    0.6620    0.1671 C   0  0  0  0  0  0  0  0  0  0  0  0
   -6.1600   -1.4388   -1.6682 C   0  0  0  0  0  0  0  0  0  0  0  0
   -7.2519    0.1302   -0.1801 C   0  0  0  0  0  0  0  0  0  0  0  0
   -7.3263   -0.9217   -1.0902 C   0  0  0  0  0  0  0  0  0  0  0  0
   -6.2351   -2.5430   -2.6457 C   0  0  0  0  0  0  0  0  0  0  0  0
   -8.5803   -1.3933   -1.3698 O   0  0  0  0  0  0  0  0  0  0  0  0
   -5.0405   -2.8978   -3.1448 O   0  0  0  0  0  0  0  0  0  0  0  0
   -7.2720   -3.0917   -2.9867 O   0  0  0  0  0  0  0  0  0  0  0  0
  1  2  1  0  0  0  0
  1  3  1  0  0  0  0
  1  4  2  0  0  0  0
  2  5  2  0  0  0  0
  3  6  2  0  0  0  0
  4  7  1  0  0  0  0
  5  8  1  0  0  0  0
  5  9  1  0  0  0  0
  6 10  1  0  0  0  0
  7  8  2  0  0  0  0
  8 11  1  0  0  0  0
  9 12  1  0  0  0  0
  9 13  2  0  0  0  0
 10 14  1  0  0  0  0
 10 15  2  0  0  0  0
 14 16  2  0  0  0  0
 15 17  1  0  0  0  0
 16 18  1  0  0  0  0
 16 19  1  0  0  0  0
 17 18  2  0  0  0  0
 18 20  1  0  0  0  0
 19 21  1  0  0  0  0
 19 22  2  0  0  0  0
M  END
