338
 OpenBabel10141417553D

 24 26  0  0  1  0  0  0  0  0999 V2000
    1.6116   -0.6277   -1.1306 S   0  0  3  0  0  0  0  0  0  0  0  0
   -4.4373   -0.6803    0.6654 O   0  0  0  0  0  0  0  0  0  0  0  0
    1.4712    0.8757   -1.0687 O   0  0  0  0  0  0  0  0  0  0  0  0
    7.7943   -0.4143    3.0872 O   0  0  0  0  0  0  0  0  0  0  0  0
    3.8668    0.0258    0.2426 N   0  0  0  0  0  0  0  0  0  0  0  0
    3.4716   -2.1591    0.1312 N   0  0  0  0  0  0  0  0  0  0  0  0
   -1.1671   -1.1568   -1.8426 N   0  0  0  0  0  0  0  0  0  0  0  0
    0.3863   -1.4198   -0.0109 C   0  0  0  0  0  0  0  0  0  0  0  0
   -1.0348   -1.2155   -0.4952 C   0  0  0  0  0  0  0  0  0  0  0  0
   -2.1559   -1.1346    0.3494 C   0  0  0  0  0  0  0  0  0  0  0  0
    3.0365   -0.9626   -0.2117 C   0  0  0  0  0  0  0  0  0  0  0  0
    4.8762   -0.5504    0.9576 C   0  0  0  0  0  0  0  0  0  0  0  0
   -3.4293   -0.9066   -0.2421 C   0  0  0  0  0  0  0  0  0  0  0  0
    4.6049   -1.9168    0.8642 C   0  0  0  0  0  0  0  0  0  0  0  0
   -3.5534   -0.8045   -1.6326 C   0  0  0  0  0  0  0  0  0  0  0  0
   -2.0671   -1.2107    1.8539 C   0  0  0  0  0  0  0  0  0  0  0  0
    5.9562   -0.0366    1.6787 C   0  0  0  0  0  0  0  0  0  0  0  0
   -2.3824   -0.9229   -2.3657 C   0  0  0  0  0  0  0  0  0  0  0  0
    5.4610   -2.8261    1.4914 C   0  0  0  0  0  0  0  0  0  0  0  0
    6.7695   -0.9525    2.3499 C   0  0  0  0  0  0  0  0  0  0  0  0
    6.5355   -2.3301    2.2373 C   0  0  0  0  0  0  0  0  0  0  0  0
   -4.8083   -0.5222   -2.3952 C   0  0  0  0  0  0  0  0  0  0  0  0
   -5.7400   -1.1602    0.3723 C   0  0  0  0  0  0  0  0  0  0  0  0
    8.1919   -1.1949    4.2135 C   0  0  0  0  0  0  0  0  0  0  0  0
  1  3  2  0  0  0  0
  1  8  1  0  0  0  0
  1 11  1  0  0  0  0
  2 13  1  0  0  0  0
  2 23  1  0  0  0  0
  4 20  1  0  0  0  0
  4 24  1  0  0  0  0
  5 11  1  0  0  0  0
  5 12  1  0  0  0  0
  6 11  2  0  0  0  0
  6 14  1  0  0  0  0
  7  9  2  0  0  0  0
  7 18  1  0  0  0  0
  8  9  1  0  0  0  0
  9 10  1  0  0  0  0
 10 13  2  0  0  0  0
 10 16  1  0  0  0  0
 12 14  2  0  0  0  0
 12 17  1  0  0  0  0
 13 15  1  0  0  0  0
 14 19  1  0  0  0  0
 15 18  2  0  0  0  0
 15 22  1  0  0  0  0
 17 20  2  0  0  0  0
 19 21  2  0  0  0  0
 20 21  1  0  0  0  0
M  END
