904
 OpenBabel10141417503D

 22 25  0  0  1  0  0  0  0  0999 V2000
    1.3421    0.0364   -0.3883 O   0  0  0  0  0  0  0  0  0  0  0  0
    4.9115    2.6932    0.6950 N   0  0  0  0  0  0  0  0  0  0  0  0
    3.0695   -3.6426    0.5720 N   0  0  0  0  0  0  0  0  0  0  0  0
    3.9051   -5.5162    1.4020 N   0  0  0  0  0  0  0  0  0  0  0  0
    3.3613   -1.1985    0.1013 C   0  0  3  0  0  0  0  0  0  0  0  0
    4.4988   -1.0203    1.1352 C   0  0  0  0  0  0  0  0  0  0  0  0
    5.3989    0.1854    0.8151 C   0  0  0  0  0  0  0  0  0  0  0  0
    4.5385    1.3784    0.5817 C   0  0  0  0  0  0  0  0  0  0  0  0
    3.2087    1.3401    0.2046 C   0  0  0  0  0  0  0  0  0  0  0  0
    2.5184    0.0793   -0.0374 C   0  0  0  0  0  0  0  0  0  0  0  0
    2.4166   -2.3510    0.4729 C   0  0  0  0  0  0  0  0  0  0  0  0
    2.7354    2.6796    0.1537 C   0  0  0  0  0  0  0  0  0  0  0  0
    3.8164    3.5103    0.4700 C   0  0  0  0  0  0  0  0  0  0  0  0
    6.2351    3.1905    1.0047 C   0  0  0  0  0  0  0  0  0  0  0  0
    1.4843    3.2685   -0.1240 C   0  0  0  0  0  0  0  0  0  0  0  0
    3.6867    4.9087    0.5170 C   0  0  0  0  0  0  0  0  0  0  0  0
    3.2206   -4.4269    1.6933 C   0  0  0  0  0  0  0  0  0  0  0  0
    3.6298   -4.3136   -0.4830 C   0  0  0  0  0  0  0  0  0  0  0  0
    1.3456    4.6587   -0.0724 C   0  0  0  0  0  0  0  0  0  0  0  0
    2.4337    5.4655    0.2437 C   0  0  0  0  0  0  0  0  0  0  0  0
    4.1548   -5.4602    0.0583 C   0  0  0  0  0  0  0  0  0  0  0  0
    2.6933   -4.0903    3.0403 C   0  0  0  0  0  0  0  0  0  0  0  0
  1 10  2  0  0  0  0
  2  8  1  0  0  0  0
  2 13  1  0  0  0  0
  2 14  1  0  0  0  0
  3 11  1  0  0  0  0
  3 17  1  0  0  0  0
  3 18  1  0  0  0  0
  4 17  2  0  0  0  0
  4 21  1  0  0  0  0
  5  6  1  0  0  0  0
  5 10  1  0  0  0  0
  5 11  1  0  0  0  0
  6  7  1  0  0  0  0
  7  8  1  0  0  0  0
  8  9  2  0  0  0  0
  9 10  1  0  0  0  0
  9 12  1  0  0  0  0
 12 13  1  0  0  0  0
 12 15  2  0  0  0  0
 13 16  2  0  0  0  0
 15 19  1  0  0  0  0
 16 20  1  0  0  0  0
 17 22  1  0  0  0  0
 18 21  2  0  0  0  0
 19 20  2  0  0  0  0
M  END
