816
 OpenBabel10141417483D

 15 15  0  0  1  0  0  0  0  0999 V2000
    1.1726   -0.6239   -0.5066 O   0  0  0  0  0  0  0  0  0  0  0  0
    5.7964    0.5977   -4.1764 O   0  0  0  0  0  0  0  0  0  0  0  0
    3.1516   -3.3074   -4.2820 O   0  0  0  0  0  0  0  0  0  0  0  0
    3.2955   -1.9551    0.9419 N   0  0  0  0  0  0  0  0  0  0  0  0
    2.5045   -0.1023   -0.5718 C   0  0  3  0  0  0  0  0  0  0  0  0
    3.2695   -0.4923    0.7191 C   0  0  0  0  0  0  0  0  0  0  0  0
    4.0072   -2.3233    2.1795 C   0  0  0  0  0  0  0  0  0  0  0  0
    3.1814   -0.5446   -1.8480 C   0  0  0  0  0  0  0  0  0  0  0  0
    3.3230   -1.7485    3.4210 C   0  0  0  0  0  0  0  0  0  0  0  0
    4.0619   -3.8504    2.2928 C   0  0  0  0  0  0  0  0  0  0  0  0
    2.8296   -1.7475   -2.4871 C   0  0  0  0  0  0  0  0  0  0  0  0
    4.1974    0.2455   -2.4175 C   0  0  0  0  0  0  0  0  0  0  0  0
    4.8210   -0.1587   -3.5929 C   0  0  0  0  0  0  0  0  0  0  0  0
    3.4725   -2.1388   -3.6534 C   0  0  0  0  0  0  0  0  0  0  0  0
    4.4714   -1.3509   -4.2193 C   0  0  0  0  0  0  0  0  0  0  0  0
  1  5  1  0  0  0  0
  2 13  1  0  0  0  0
  3 14  1  0  0  0  0
  4  6  1  0  0  0  0
  4  7  1  0  0  0  0
  5  6  1  0  0  0  0
  5  8  1  0  0  0  0
  7  9  1  0  0  0  0
  7 10  1  0  0  0  0
  8 11  2  0  0  0  0
  8 12  1  0  0  0  0
 11 14  1  0  0  0  0
 12 13  2  0  0  0  0
 13 15  1  0  0  0  0
 14 15  2  0  0  0  0
M  END
