1173
 OpenBabel10141417513D

 20 21  0  0  1  0  0  0  0  0999 V2000
    0.0227   -0.4031   -1.2015 O   0  0  0  0  0  0  0  0  0  0  0  0
    2.8073   -2.7086   -2.2646 N   0  0  0  0  0  0  0  0  0  0  0  0
   -0.4433    0.9264   -1.5405 C   0  0  3  0  0  0  0  0  0  0  0  0
   -0.8679    0.9816   -3.0101 C   0  0  0  0  0  0  0  0  0  0  0  0
   -1.5988    1.3238   -0.6136 C   0  0  0  0  0  0  0  0  0  0  0  0
    1.1826   -0.7946   -1.9449 C   0  0  0  0  0  0  0  0  0  0  0  0
   -0.2627    1.8480   -3.9557 C   0  0  0  0  0  0  0  0  0  0  0  0
    1.6308   -2.2055   -1.5226 C   0  0  0  0  0  0  0  0  0  0  0  0
   -1.8958    0.1174   -3.4453 C   0  0  0  0  0  0  0  0  0  0  0  0
   -2.0388    0.4821    0.4228 C   0  0  0  0  0  0  0  0  0  0  0  0
   -2.2533    2.5573   -0.7849 C   0  0  0  0  0  0  0  0  0  0  0  0
   -0.7265    1.8375   -5.2824 C   0  0  0  0  0  0  0  0  0  0  0  0
    0.8514    2.7892   -3.5908 C   0  0  0  0  0  0  0  0  0  0  0  0
   -2.3318    0.1157   -4.7627 C   0  0  0  0  0  0  0  0  0  0  0  0
   -1.7512    0.9818   -5.6845 C   0  0  0  0  0  0  0  0  0  0  0  0
   -3.1206    0.8341    1.2361 C   0  0  0  0  0  0  0  0  0  0  0  0
   -3.3382    2.9050    0.0253 C   0  0  0  0  0  0  0  0  0  0  0  0
    3.1803   -4.0385   -1.7720 C   0  0  0  0  0  0  0  0  0  0  0  0
    2.5710   -2.7787   -3.7090 C   0  0  0  0  0  0  0  0  0  0  0  0
   -3.7751    2.0462    1.0284 C   0  0  0  0  0  0  0  0  0  0  0  0
  1  3  1  0  0  0  0
  1  6  1  0  0  0  0
  2  8  1  0  0  0  0
  2 18  1  0  0  0  0
  2 19  1  0  0  0  0
  3  4  1  0  0  0  0
  3  5  1  0  0  0  0
  4  7  1  0  0  0  0
  4  9  2  0  0  0  0
  5 10  2  0  0  0  0
  5 11  1  0  0  0  0
  6  8  1  0  0  0  0
  7 12  2  0  0  0  0
  7 13  1  0  0  0  0
  9 14  1  0  0  0  0
 10 16  1  0  0  0  0
 11 17  2  0  0  0  0
 12 15  1  0  0  0  0
 14 15  2  0  0  0  0
 16 20  2  0  0  0  0
 17 20  1  0  0  0  0
M  END
