
 OpenBabel10141417543D

 27 29  0  0  0  0  0  0  0  0999 V2000
    0.3044   -0.7494   -2.1681 Cl  0  0  0  0  0  0  0  0  0  0  0  0
    9.6657   -0.1053    2.4599 O   0  0  0  0  0  0  0  0  0  0  0  0
    9.8313   -2.5684    5.2279 O   0  0  0  0  0  0  0  0  0  0  0  0
    4.3780   -0.2575   -1.5101 C   0  0  0  0  0  0  0  0  0  0  0  0
    4.5162   -0.2241   -0.1015 C   0  0  0  0  0  0  0  0  0  0  0  0
    3.0570   -0.0271   -2.4063 C   0  0  0  0  0  0  0  0  0  0  0  0
    5.9074   -0.1637    0.5675 C   0  0  0  0  0  0  0  0  0  0  0  0
    5.5687   -0.5104   -2.5835 C   0  0  0  0  0  0  0  0  0  0  0  0
    3.3344   -0.2877    0.9027 C   0  0  0  0  0  0  0  0  0  0  0  0
    6.9657    0.6717    0.1253 C   0  0  0  0  0  0  0  0  0  0  0  0
    6.1429   -0.8949    1.7130 C   0  0  0  0  0  0  0  0  0  0  0  0
    1.6056    0.5052   -2.1903 C   0  0  0  0  0  0  0  0  0  0  0  0
    5.3902   -0.4408   -3.9901 C   0  0  0  0  0  0  0  0  0  0  0  0
    6.8703   -0.9250   -2.2399 C   0  0  0  0  0  0  0  0  0  0  0  0
    2.1258   -0.7042    0.5011 C   0  0  0  0  0  0  0  0  0  0  0  0
    3.3353   -0.1172    2.2835 C   0  0  0  0  0  0  0  0  0  0  0  0
    8.2462    0.5590    0.7147 C   0  0  0  0  0  0  0  0  0  0  0  0
    7.2961   -0.6990    2.4904 C   0  0  0  0  0  0  0  0  0  0  0  0
    8.4111   -0.0820    1.9235 C   0  0  0  0  0  0  0  0  0  0  0  0
    6.4075   -0.7292   -4.9318 C   0  0  0  0  0  0  0  0  0  0  0  0
    7.9354   -1.0557   -3.1538 C   0  0  0  0  0  0  0  0  0  0  0  0
    0.8961   -0.5394    1.1820 C   0  0  0  0  0  0  0  0  0  0  0  0
    2.1850   -0.2172    3.0926 C   0  0  0  0  0  0  0  0  0  0  0  0
    7.6967   -1.0111   -4.5090 C   0  0  0  0  0  0  0  0  0  0  0  0
    0.9345   -0.3345    2.5104 C   0  0  0  0  0  0  0  0  0  0  0  0
    9.8013   -0.6128    3.7916 C   0  0  0  0  0  0  0  0  0  0  0  0
    9.6463   -2.1367    3.8867 C   0  0  0  0  0  0  0  0  0  0  0  0
  1 12  1  0  0  0  0
  2 19  1  0  0  0  0
  2 26  1  0  0  0  0
  3 27  1  0  0  0  0
  4  5  2  0  0  0  0
  4  6  1  0  0  0  0
  4  8  1  0  0  0  0
  5  7  1  0  0  0  0
  5  9  1  0  0  0  0
  6 12  1  0  0  0  0
  7 10  2  0  0  0  0
  7 11  1  0  0  0  0
  8 13  2  0  0  0  0
  8 14  1  0  0  0  0
  9 15  2  0  0  0  0
  9 16  1  0  0  0  0
 10 17  1  0  0  0  0
 11 18  2  0  0  0  0
 13 20  1  0  0  0  0
 14 21  2  0  0  0  0
 15 22  1  0  0  0  0
 16 23  2  0  0  0  0
 17 19  2  0  0  0  0
 18 19  1  0  0  0  0
 20 24  2  0  0  0  0
 21 24  1  0  0  0  0
 22 25  2  0  0  0  0
 23 25  1  0  0  0  0
 26 27  1  0  0  0  0
M  END
