1092
 OpenBabel10141417533D

 41 46  0  0  1  0  0  0  0  0999 V2000
   -1.1631   -1.0890    0.6647 O   0  0  0  0  0  0  0  0  0  0  0  0
   -3.5742    4.7119    0.1685 O   0  0  0  0  0  0  0  0  0  0  0  0
   -5.4053    0.8788    1.9031 O   0  0  0  0  0  0  0  0  0  0  0  0
   -6.1510    3.7538   -1.9371 O   0  0  0  0  0  0  0  0  0  0  0  0
   -3.6652    4.1894   -2.2782 O   0  0  0  0  0  0  0  0  0  0  0  0
   -6.6955    5.2829    0.6322 O   0  0  0  0  0  0  0  0  0  0  0  0
   -7.6651   -3.2646   -1.2902 O   0  0  0  0  0  0  0  0  0  0  0  0
   -7.9932    7.0074   -0.3362 O   0  0  0  0  0  0  0  0  0  0  0  0
   -8.7844   -1.3613   -1.9137 O   0  0  0  0  0  0  0  0  0  0  0  0
  -10.4475    5.7454    0.5126 O   0  0  0  0  0  0  0  0  0  0  0  0
   -9.9745    6.1784    3.2628 O   0  0  0  0  0  0  0  0  0  0  0  0
   -8.5066    8.6110    2.9722 O   0  0  0  0  0  0  0  0  0  0  0  0
   -4.1651    0.9832   -0.2387 C   0  0  1  0  0  0  0  0  0  0  0  0
   -2.7032    0.7021    0.1289 C   0  0  2  0  0  0  0  0  0  0  0  0
   -2.3440   -0.8067   -0.0813 C   0  0  1  0  0  0  0  0  0  0  0  0
   -3.5061   -1.8259    0.1975 C   0  0  2  0  0  0  0  0  0  0  0  0
   -4.4019    2.5197   -0.5444 C   0  0  2  0  0  0  0  0  0  0  0  0
   -3.9872    3.4159    0.6795 C   0  0  1  0  0  0  0  0  0  0  0  0
   -5.1019    0.1809    0.7093 C   0  0  1  0  0  0  0  0  0  0  0  0
   -4.5383   -1.1854    1.1417 C   0  0  0  0  0  0  0  0  0  0  0  0
   -4.0597   -2.2742   -1.2227 C   0  0  2  0  0  0  0  0  0  0  0  0
   -2.4311    1.3695    1.4867 C   0  0  0  0  0  0  0  0  0  0  0  0
   -1.9898   -1.0858   -1.5652 C   0  0  0  0  0  0  0  0  0  0  0  0
   -2.7046    2.8871    1.4227 C   0  0  0  0  0  0  0  0  0  0  0  0
   -5.8938    2.7010   -1.0099 C   0  0  1  0  0  0  0  0  0  0  0  0
   -3.2790   -1.4742   -2.2712 C   0  0  0  0  0  0  0  0  0  0  0  0
   -5.1198    3.7450    1.6859 C   0  0  0  0  0  0  0  0  0  0  0  0
   -3.4738    2.8640   -1.7870 C   0  0  0  0  0  0  0  0  0  0  0  0
   -2.9742   -3.1010    0.9018 C   0  0  0  0  0  0  0  0  0  0  0  0
   -6.9213    2.8656    0.0974 C   0  0  0  0  0  0  0  0  0  0  0  0
   -6.5422    3.9375    1.1136 C   0  0  2  0  0  0  0  0  0  0  0  0
   -5.5538   -2.3422   -1.4104 C   0  0  0  0  0  0  0  0  0  0  0  0
   -6.2913   -3.5941   -1.1004 C   0  0  0  0  0  0  0  0  0  0  0  0
   -6.4113   -1.4310   -1.8722 C   0  0  0  0  0  0  0  0  0  0  0  0
   -7.9830    5.6386    0.1003 C   0  0  2  0  0  0  0  0  0  0  0  0
   -7.7614   -1.9815   -1.7284 C   0  0  0  0  0  0  0  0  0  0  0  0
   -9.1618    5.4237    1.0828 C   0  0  1  0  0  0  0  0  0  0  0  0
   -8.9299    6.3340    2.2879 C   0  0  1  0  0  0  0  0  0  0  0  0
   -7.8213    7.9608    0.7171 C   0  0  2  0  0  0  0  0  0  0  0  0
   -8.8590    7.7999    1.8431 C   0  0  2  0  0  0  0  0  0  0  0  0
   -7.9172    9.3428    0.0753 C   0  0  0  0  0  0  0  0  0  0  0  0
  5 28  1  0  0  0  0
  7 33  1  0  0  0  0
  7 36  1  0  0  0  0
  8 35  1  0  0  0  0
  8 39  1  0  0  0  0
  9 36  2  0  0  0  0
 13 14  1  6  0  0  0
 13 17  1  0  0  0  0
 13 19  1  0  0  0  0
 14 15  1  0  0  0  0
 14 22  1  1  0  0  0
 15 16  1  0  0  0  0
 15 23  1  0  0  0  0
 15  1  1  6  0  0  0
 16 20  1  0  0  0  0
 16 21  1  0  0  0  0
 16 29  1  6  0  0  0
 17 18  1  0  0  0  0
 17 25  1  0  0  0  0
 17 28  1  6  0  0  0
 18 24  1  0  0  0  0
 18 27  1  0  0  0  0
 18  2  1  6  0  0  0
 19 20  1  0  0  0  0
 19  3  1  1  0  0  0
 21 26  1  0  0  0  0
 21 32  1  1  0  0  0
 22 24  1  0  0  0  0
 23 26  1  0  0  0  0
 25 30  1  0  0  0  0
 25  4  1  6  0  0  0
 27 31  1  0  0  0  0
 30 31  1  0  0  0  0
 31  6  1  6  0  0  0
 32 33  1  0  0  0  0
 32 34  2  0  0  0  0
 34 36  1  0  0  0  0
 35  6  1  1  0  0  0
 35 37  1  0  0  0  0
 37 38  1  0  0  0  0
 37 10  1  6  0  0  0
 38 40  1  0  0  0  0
 38 11  1  1  0  0  0
 39 40  1  0  0  0  0
 39 41  1  6  0  0  0
 40 12  1  1  0  0  0
M  END
