
 OpenBabel10141417533D

 15 17  0  0  0  0  0  0  0  0999 V2000
   -0.7898   -1.4108   -0.2006 C   0  0  0  0  0  0  0  0  0  0  0  0
   -1.1224    1.4402    0.5436 C   0  0  0  0  0  0  0  0  0  0  0  0
   -2.1179    0.7833   -0.4109 C   0  0  0  0  0  0  0  0  0  0  0  0
   -2.1867   -0.7372   -0.1560 C   0  0  0  0  0  0  0  0  0  0  0  0
    0.2453    0.7867    0.3737 C   0  0  2  0  0  0  0  0  0  0  0  0
    0.1860   -0.6931    0.7772 C   0  0  2  0  0  0  0  0  0  0  0  0
    1.5630   -1.2038    0.7228 N   0  0  0  0  0  0  0  0  0  0  0  0
    0.7136    0.8435   -1.0214 N   0  0  0  0  0  0  0  0  0  0  0  0
    3.6773    1.7404   -2.2219 C   0  0  0  0  0  0  0  0  0  0  0  0
    3.6105    2.1430   -0.7858 C   0  0  0  0  0  0  0  0  0  0  0  0
    2.3782   -0.3161   -0.9347 Pt  0  0  0  0  0  0  0  0  0  0  0  0
    3.1540    0.5334   -2.5070 O   0  0  0  0  0  0  0  0  0  0  0  0
    3.1595    1.1871    0.0628 O   0  0  0  0  0  0  0  0  0  0  0  0
    3.8681    3.2783   -0.3903 O   0  0  0  0  0  0  0  0  0  0  0  0
    4.1400    2.4527   -3.0995 O   0  0  0  0  0  0  0  0  0  0  0  0
  1  4  1  0  0  0  0
  2  3  1  0  0  0  0
  3  4  1  0  0  0  0
  5  2  1  1  0  0  0
  5  8  1  0  0  0  0
  5  6  1  0  0  0  0
  6  1  1  6  0  0  0
  6  7  1  0  0  0  0
  7 11  1  0  0  0  0
  9 15  2  0  0  0  0
  9 12  1  0  0  0  0
  9 10  1  0  0  0  0
 10 13  1  0  0  0  0
 11  8  1  0  0  0  0
 11 12  1  0  0  0  0
 13 11  1  0  0  0  0
 14 10  2  0  0  0  0
M  END
