621
 OpenBabel10141417493D

 22 25  0  0  1  0  0  0  0  0999 V2000
    6.5208   11.3936   -7.5570 O   0  0  0  0  0  0  0  0  0  0  0  0
    7.9301    6.6252   -4.6481 O   0  0  0  0  0  0  0  0  0  0  0  0
    5.8896    6.4991   -3.5236 O   0  0  0  0  0  0  0  0  0  0  0  0
    8.5956    9.7643   -5.5392 C   0  0  2  0  0  0  0  0  0  0  0  0
    7.0641    9.5306   -5.6530 C   0  0  1  0  0  0  0  0  0  0  0  0
    9.0845    8.2931   -5.6924 C   0  0  1  0  0  0  0  0  0  0  0  0
    9.3704    7.8520   -3.9235 C   0  0  1  0  0  0  0  0  0  0  0  0
    9.4841    6.0003   -3.6954 C   0  0  2  0  0  0  0  0  0  0  0  0
    7.2652   10.1668   -7.3544 C   0  0  2  0  0  0  0  0  0  0  0  0
    7.2519    9.6051   -3.9127 C   0  0  0  0  0  0  0  0  0  0  0  0
    8.2593    8.6086   -3.1111 C   0  0  0  0  0  0  0  0  0  0  0  0
    9.0593   10.9912   -6.2922 C   0  0  0  0  0  0  0  0  0  0  0  0
    8.5067    4.6783   -4.5223 C   0  0  1  0  0  0  0  0  0  0  0  0
    8.1103    7.0428   -6.6719 C   0  0  0  0  0  0  0  0  0  0  0  0
    8.7195   10.5733   -7.6439 C   0  0  0  0  0  0  0  0  0  0  0  0
    7.8928    5.2485   -6.2313 C   0  0  0  0  0  0  0  0  0  0  0  0
    5.6682   10.2098   -5.4627 C   0  0  0  0  0  0  0  0  0  0  0  0
    9.6783    6.1336   -5.0597 C   0  0  0  0  0  0  0  0  0  0  0  0
   10.6124    5.5128   -2.8375 C   0  0  0  0  0  0  0  0  0  0  0  0
    7.3195    4.5871   -3.6346 C   0  0  0  0  0  0  0  0  0  0  0  0
    6.9194    9.2942   -8.6025 C   0  0  0  0  0  0  0  0  0  0  0  0
    6.9131    5.9937   -3.8798 C   0  0  0  0  0  0  0  0  0  0  0  0
  2 18  1  0  0  0  0
  2 22  1  0  0  0  0
  3 22  2  0  0  0  0
  4  5  1  0  0  0  0
  4  6  1  0  0  0  0
  4 12  1  1  0  0  0
  5  9  1  0  0  0  0
  5 10  1  0  0  0  0
  5 17  1  1  0  0  0
  6  7  1  0  0  0  0
  6 14  1  1  0  0  0
  7  8  1  0  0  0  0
  7 11  1  6  0  0  0
  8 13  1  0  0  0  0
  8 18  1  0  0  0  0
  8 19  1  6  0  0  0
  9 15  1  0  0  0  0
  9 21  1  6  0  0  0
  9  1  1  0  0  0  0
 10 11  1  0  0  0  0
 12 15  1  0  0  0  0
 13 16  1  1  0  0  0
 13 20  1  0  0  0  0
 14 16  1  0  0  0  0
 20 22  1  0  0  0  0
M  END
