842
 OpenBabel10141417503D

 20 22  0  0  1  0  0  0  0  0999 V2000
    1.0309   -0.0418   -0.3667 Cl  0  0  0  0  0  0  0  0  0  0  0  0
    8.2471    2.7839   -2.1039 O   0  0  0  0  0  0  0  0  0  0  0  0
    9.0347    0.6719   -0.5348 O   0  0  0  0  0  0  0  0  0  0  0  0
    6.9441   -0.0548   -0.1444 N   0  0  0  0  0  0  0  0  0  0  0  0
    6.5701    2.9531   -0.4210 N   0  0  0  0  0  0  0  0  0  0  0  0
    4.8198    1.2314   -0.1124 C   0  0  0  0  0  0  0  0  0  0  0  0
    5.4819    2.5491    0.1416 C   0  0  0  0  0  0  0  0  0  0  0  0
    5.5445    0.0269   -0.1390 C   0  0  0  0  0  0  0  0  0  0  0  0
    4.8578    3.4796    1.1369 C   0  0  0  0  0  0  0  0  0  0  0  0
    7.2292    2.0983   -1.3935 C   0  0  3  0  0  0  0  0  0  0  0  0
    3.4184    1.2034   -0.2097 C   0  0  0  0  0  0  0  0  0  0  0  0
    4.8498   -1.1903   -0.1493 C   0  0  0  0  0  0  0  0  0  0  0  0
    7.8230    0.8765   -0.6416 C   0  0  0  0  0  0  0  0  0  0  0  0
    2.7472   -0.0153   -0.2674 C   0  0  0  0  0  0  0  0  0  0  0  0
    3.4551   -1.2119   -0.2196 C   0  0  0  0  0  0  0  0  0  0  0  0
    4.2989    3.0007    2.3285 C   0  0  0  0  0  0  0  0  0  0  0  0
    4.8681    4.8552    0.8768 C   0  0  0  0  0  0  0  0  0  0  0  0
    3.7262    3.8935    3.2368 C   0  0  0  0  0  0  0  0  0  0  0  0
    4.2949    5.7432    1.7880 C   0  0  0  0  0  0  0  0  0  0  0  0
    3.7208    5.2616    2.9643 C   0  0  0  0  0  0  0  0  0  0  0  0
  1 14  1  0  0  0  0
  2 10  1  0  0  0  0
  3 13  2  0  0  0  0
  4  8  1  0  0  0  0
  4 13  1  0  0  0  0
  5  7  2  0  0  0  0
  5 10  1  0  0  0  0
  6  7  1  0  0  0  0
  6  8  2  0  0  0  0
  6 11  1  0  0  0  0
  7  9  1  0  0  0  0
  8 12  1  0  0  0  0
  9 16  2  0  0  0  0
  9 17  1  0  0  0  0
 10 13  1  0  0  0  0
 11 14  2  0  0  0  0
 12 15  2  0  0  0  0
 14 15  1  0  0  0  0
 16 18  1  0  0  0  0
 17 19  2  0  0  0  0
 18 20  2  0  0  0  0
 19 20  1  0  0  0  0
M  END
