776
 OpenBabel10141417513D

 19 21  0  0  0  0  0  0  0  0999 V2000
    1.0193    0.2441   -0.5539 O   0  0  0  0  0  0  0  0  0  0  0  0
    7.1154    1.2991   -0.0750 O   0  0  0  0  0  0  0  0  0  0  0  0
    5.2204    0.0322    0.5092 N   0  0  0  0  0  0  0  0  0  0  0  0
    7.3189   -0.9044    0.0176 N   0  0  0  0  0  0  0  0  0  0  0  0
    3.6200   -1.8215    0.3986 C   0  0  0  0  0  0  0  0  0  0  0  0
    4.7357   -1.2219    0.9918 C   0  0  0  0  0  0  0  0  0  0  0  0
    2.9401   -1.1355   -0.7446 C   0  0  0  0  0  0  0  0  0  0  0  0
    4.3367    1.1535    0.7454 C   0  0  0  0  0  0  0  0  0  0  0  0
    2.9516    1.1651    0.4593 C   0  0  0  0  0  0  0  0  0  0  0  0
    2.2129    0.0954   -0.2840 C   0  0  0  0  0  0  0  0  0  0  0  0
    3.1570   -3.0567    0.8750 C   0  0  0  0  0  0  0  0  0  0  0  0
    5.3894   -1.8774    2.0469 C   0  0  0  0  0  0  0  0  0  0  0  0
    4.8779    2.3080    1.3562 C   0  0  0  0  0  0  0  0  0  0  0  0
    2.1727    2.2942    0.7999 C   0  0  0  0  0  0  0  0  0  0  0  0
    6.5672    0.2268    0.1690 C   0  0  0  0  0  0  0  0  0  0  0  0
    3.8095   -3.6965    1.9280 C   0  0  0  0  0  0  0  0  0  0  0  0
    4.9269   -3.1084    2.5133 C   0  0  0  0  0  0  0  0  0  0  0  0
    4.0952    3.4191    1.6827 C   0  0  0  0  0  0  0  0  0  0  0  0
    2.7383    3.4108    1.4086 C   0  0  0  0  0  0  0  0  0  0  0  0
  1 10  2  0  0  0  0
  2 15  2  0  0  0  0
  3  6  1  0  0  0  0
  3  8  1  0  0  0  0
  3 15  1  0  0  0  0
  4 15  1  0  0  0  0
  5  6  1  0  0  0  0
  5  7  1  0  0  0  0
  5 11  2  0  0  0  0
  6 12  2  0  0  0  0
  7 10  1  0  0  0  0
  8  9  1  0  0  0  0
  8 13  2  0  0  0  0
  9 10  1  0  0  0  0
  9 14  2  0  0  0  0
 11 16  1  0  0  0  0
 12 17  1  0  0  0  0
 13 18  1  0  0  0  0
 14 19  1  0  0  0  0
 16 17  2  0  0  0  0
 18 19  2  0  0  0  0
M  END
