1580
 OpenBabel10141417483D

 19 19  0  0  1  0  0  0  0  0999 V2000
   -0.7700   -3.7257    0.6262 O   0  0  0  0  0  0  0  0  0  0  0  0
   -3.2629   -2.4984   -0.2442 O   0  0  0  0  0  0  0  0  0  0  0  0
   -0.5709   -6.0322    2.0588 O   0  0  0  0  0  0  0  0  0  0  0  0
   -1.4395   -2.6997   -3.4939 N   0  0  0  0  0  0  0  0  0  0  0  0
   -2.4088   -2.2427   -2.4884 C   0  0  0  0  0  0  0  0  0  0  0  0
   -2.2885   -3.0211   -1.1579 C   0  0  3  0  0  0  0  0  0  0  0  0
   -1.5251   -1.9916   -4.7783 C   0  0  0  0  0  0  0  0  0  0  0  0
   -0.8686   -2.9146   -0.5639 C   0  0  0  0  0  0  0  0  0  0  0  0
   -1.2803   -0.4853   -4.6649 C   0  0  0  0  0  0  0  0  0  0  0  0
   -0.4768   -2.5931   -5.7238 C   0  0  0  0  0  0  0  0  0  0  0  0
    0.4924   -4.2011    0.9261 C   0  0  0  0  0  0  0  0  0  0  0  0
    0.5962   -5.3945    1.6772 C   0  0  0  0  0  0  0  0  0  0  0  0
    1.6691   -3.5368    0.5328 C   0  0  0  0  0  0  0  0  0  0  0  0
    1.8749   -5.8972    1.9802 C   0  0  0  0  0  0  0  0  0  0  0  0
    2.9288   -4.0644    0.8329 C   0  0  0  0  0  0  0  0  0  0  0  0
    3.0311   -5.2439    1.5555 C   0  0  0  0  0  0  0  0  0  0  0  0
   -0.3994   -7.2102    2.8546 C   0  0  0  0  0  0  0  0  0  0  0  0
   -1.7287   -7.8103    3.2248 C   0  0  0  0  0  0  0  0  0  0  0  0
   -2.3466   -7.5999    4.3807 C   0  0  0  0  0  0  0  0  0  0  0  0
  1  8  1  0  0  0  0
  1 11  1  0  0  0  0
  2  6  1  0  0  0  0
  3 12  1  0  0  0  0
  3 17  1  0  0  0  0
  4  5  1  0  0  0  0
  4  7  1  0  0  0  0
  5  6  1  0  0  0  0
  6  8  1  0  0  0  0
  7  9  1  0  0  0  0
  7 10  1  0  0  0  0
 11 12  1  0  0  0  0
 11 13  2  0  0  0  0
 12 14  2  0  0  0  0
 13 15  1  0  0  0  0
 14 16  1  0  0  0  0
 15 16  2  0  0  0  0
 17 18  1  0  0  0  0
 18 19  2  0  0  0  0
M  END
