
 OpenBabel10141417493D

 20 20  0  0  0  0  0  0  0  0999 V2000
   -0.9191   -1.4045   -1.0368 C   0  0  0  0  0  0  0  0  0  0  0  0
   -0.9133   -0.1319   -1.5448 C   0  0  0  0  0  0  0  0  0  0  0  0
   -1.8238    0.8175   -1.1602 N   0  0  0  0  0  0  0  0  0  0  0  0
   -2.8583    0.4754   -0.3001 C   0  0  0  0  0  0  0  0  0  0  0  0
   -2.9134   -0.8707    0.1012 N   0  0  0  0  0  0  0  0  0  0  0  0
   -1.9001   -1.8439   -0.0786 C   0  0  0  0  0  0  0  0  0  0  0  0
    0.1639   -2.0389   -1.5711 N   0  5  0  0  0  0  0  0  0  0  0  0
    0.6100   -1.2404   -2.5623 C   0  0  0  0  0  0  0  0  0  0  0  0
    0.1411    0.0170   -2.3724 N   0  0  0  0  0  0  0  0  0  0  0  0
   -1.9151   -2.8863    0.5816 O   0  0  0  0  0  0  0  0  0  0  0  0
   -3.6657    1.3085    0.1212 O   0  0  0  0  0  0  0  0  0  0  0  0
   -4.0146   -1.2599    0.9603 C   0  0  0  0  0  0  0  0  0  0  0  0
   -1.7030    2.1686   -1.6710 C   0  0  0  0  0  0  0  0  0  0  0  0
    1.7781   -0.0147    1.0399 C   0  0  0  0  0  0  0  0  0  0  0  0
    3.2562   -0.1138    0.6984 N   0  3  0  0  0  0  0  0  0  0  0  0
    3.7701    1.1836    0.0389 C   0  0  0  0  0  0  0  0  0  0  0  0
    3.0401    1.6488   -1.2320 C   0  0  0  0  0  0  0  0  0  0  0  0
    3.1391    0.7139   -2.2927 O   0  0  0  0  0  0  0  0  0  0  0  0
    4.0419   -0.3634    1.9697 C   0  0  0  0  0  0  0  0  0  0  0  0
    3.4454   -1.3179   -0.2264 C   0  0  0  0  0  0  0  0  0  0  0  0
  1  2  2  0  0  0  0
  1  6  1  0  0  0  0
  1  7  1  0  0  0  0
  2  3  1  0  0  0  0
  2  9  1  0  0  0  0
  3  4  1  0  0  0  0
  3 13  1  0  0  0  0
  4  5  1  0  0  0  0
  4 11  2  0  0  0  0
  5  6  1  0  0  0  0
  5 12  1  0  0  0  0
  6 10  2  0  0  0  0
  7  8  1  0  0  0  0
  8  9  2  0  0  0  0
 14 15  1  0  0  0  0
 15 16  1  0  0  0  0
 15 19  1  0  0  0  0
 15 20  1  0  0  0  0
 16 17  1  0  0  0  0
 17 18  1  0  0  0  0
M  CHG  2   7  -1  15   1
M  END
