892
 OpenBabel10141417513D

 22 22  0  0  0  0  0  0  0  0999 V2000
    1.1851   -0.4006    0.7339 O   0  0  0  0  0  0  0  0  0  0  0  0
    3.4861   -4.7628    1.1769 O   0  0  0  0  0  0  0  0  0  0  0  0
    2.8336    1.0774    0.0894 O   0  0  0  0  0  0  0  0  0  0  0  0
   -1.7476    0.1322   -1.5378 N   0  0  0  0  0  0  0  0  0  0  0  0
    6.0727   -4.1249    1.9629 N   0  0  0  0  0  0  0  0  0  0  0  0
   -0.6140   -0.5091   -0.8506 C   0  0  0  0  0  0  0  0  0  0  0  0
   -2.4031   -0.7761   -2.5010 C   0  0  0  0  0  0  0  0  0  0  0  0
   -2.7387    0.6911   -0.5952 C   0  0  0  0  0  0  0  0  0  0  0  0
    0.1403    0.3840    0.1493 C   0  0  0  0  0  0  0  0  0  0  0  0
   -1.5244   -1.2607   -3.6517 C   0  0  0  0  0  0  0  0  0  0  0  0
   -3.3598   -0.3004    0.3902 C   0  0  0  0  0  0  0  0  0  0  0  0
    1.9103   -6.5009    0.4518 C   0  0  0  0  0  0  0  0  0  0  0  0
    2.1680   -5.0099    0.6628 C   0  0  0  0  0  0  0  0  0  0  0  0
    0.4978   -6.7802   -0.0824 C   0  0  0  0  0  0  0  0  0  0  0  0
    3.8193   -3.4250    1.3060 C   0  0  0  0  0  0  0  0  0  0  0  0
    3.3637   -1.0458    1.0511 C   0  0  0  0  0  0  0  0  0  0  0  0
    2.4553    0.0130    0.5736 C   0  0  0  0  0  0  0  0  0  0  0  0
    2.9385   -2.3815    1.0225 C   0  0  0  0  0  0  0  0  0  0  0  0
    5.1171   -3.1133    1.7567 C   0  0  0  0  0  0  0  0  0  0  0  0
    0.2352   -6.1459   -1.4423 C   0  0  0  0  0  0  0  0  0  0  0  0
    4.6662   -0.7384    1.4370 C   0  0  0  0  0  0  0  0  0  0  0  0
    5.5323   -1.7697    1.8021 C   0  0  0  0  0  0  0  0  0  0  0  0
  1  9  1  0  0  0  0
  1 17  1  0  0  0  0
  2 13  1  0  0  0  0
  2 15  1  0  0  0  0
  3 17  2  0  0  0  0
  4  6  1  0  0  0  0
  4  7  1  0  0  0  0
  4  8  1  0  0  0  0
  5 19  1  0  0  0  0
  6  9  1  0  0  0  0
  7 10  1  0  0  0  0
  8 11  1  0  0  0  0
 12 13  1  0  0  0  0
 12 14  1  0  0  0  0
 14 20  1  0  0  0  0
 15 18  1  0  0  0  0
 15 19  2  0  0  0  0
 16 17  1  0  0  0  0
 16 18  2  0  0  0  0
 16 21  1  0  0  0  0
 19 22  1  0  0  0  0
 21 22  2  0  0  0  0
M  END
