1062
 OpenBabel10141417483D

 26 27  0  0  1  0  0  0  0  0999 V2000
    1.5333   -0.8473    0.4433 O   0  0  0  0  0  0  0  0  0  0  0  0
    4.3849    0.9321   -0.7951 O   0  0  0  0  0  0  0  0  0  0  0  0
    2.1576    1.4904   -0.8671 O   0  0  0  0  0  0  0  0  0  0  0  0
    6.4524    1.8330   -5.4426 N   0  0  0  0  0  0  0  0  0  0  0  0
    3.9079   -1.3524    0.7027 C   0  0  0  0  0  0  0  0  0  0  0  0
    3.7026   -2.8041    1.1982 C   0  0  0  0  0  0  0  0  0  0  0  0
    4.2461   -0.4701    1.9256 C   0  0  0  0  0  0  0  0  0  0  0  0
    2.7828   -0.8148   -0.2713 C   0  0  3  0  0  0  0  0  0  0  0  0
    2.8086   -2.9717    2.4275 C   0  0  0  0  0  0  0  0  0  0  0  0
    3.2422   -0.5602    3.0630 C   0  0  0  0  0  0  0  0  0  0  0  0
    3.1135   -1.9933    3.5560 C   0  0  0  0  0  0  0  0  0  0  0  0
    2.6138   -1.6721   -1.5540 C   0  0  0  0  0  0  0  0  0  0  0  0
    3.0540    0.6704   -0.6822 C   0  0  0  0  0  0  0  0  0  0  0  0
    3.7104   -2.3260   -2.1484 C   0  0  0  0  0  0  0  0  0  0  0  0
    1.3593   -1.8468   -2.1767 C   0  0  0  0  0  0  0  0  0  0  0  0
    3.5543   -3.1710   -3.2524 C   0  0  0  0  0  0  0  0  0  0  0  0
    1.2040   -2.6906   -3.2857 C   0  0  0  0  0  0  0  0  0  0  0  0
    2.2995   -3.3629   -3.8151 C   0  0  0  0  0  0  0  0  0  0  0  0
    4.7277    2.2667   -1.1529 C   0  0  0  0  0  0  0  0  0  0  0  0
    4.6766    2.4051   -2.5785 C   0  0  0  0  0  0  0  0  0  0  0  0
    5.0385    2.2224   -5.2247 C   0  0  0  0  0  0  0  0  0  0  0  0
    6.7258    1.6127   -6.8737 C   0  0  0  0  0  0  0  0  0  0  0  0
    7.3966    2.7656   -4.8036 C   0  0  0  0  0  0  0  0  0  0  0  0
    4.7552    2.3512   -3.7801 C   0  0  0  0  0  0  0  0  0  0  0  0
    8.1460    1.1262   -7.1764 C   0  0  0  0  0  0  0  0  0  0  0  0
    7.3266    4.2122   -5.2810 C   0  0  0  0  0  0  0  0  0  0  0  0
  1  8  1  0  0  0  0
  2 13  1  0  0  0  0
  2 19  1  0  0  0  0
  3 13  2  0  0  0  0
  4 21  1  0  0  0  0
  4 22  1  0  0  0  0
  4 23  1  0  0  0  0
  5  6  1  0  0  0  0
  5  7  1  0  0  0  0
  5  8  1  0  0  0  0
  6  9  1  0  0  0  0
  7 10  1  0  0  0  0
  8 12  1  0  0  0  0
  8 13  1  0  0  0  0
  9 11  1  0  0  0  0
 10 11  1  0  0  0  0
 12 14  2  0  0  0  0
 12 15  1  0  0  0  0
 14 16  1  0  0  0  0
 15 17  2  0  0  0  0
 16 18  2  0  0  0  0
 17 18  1  0  0  0  0
 19 20  1  0  0  0  0
 20 24  3  0  0  0  0
 21 24  1  0  0  0  0
 22 25  1  0  0  0  0
 23 26  1  0  0  0  0
M  END
