383
 OpenBabel10141417493D

 25 27  0  0  1  0  0  0  0  0999 V2000
    1.1213    0.4336   -1.1065 O   0  0  0  0  0  0  0  0  0  0  0  0
    3.7193   -0.2971    1.2838 O   0  0  0  0  0  0  0  0  0  0  0  0
    1.4348   -0.1726    1.4644 O   0  0  0  0  0  0  0  0  0  0  0  0
    4.2927   -3.2080    2.5427 N   0  0  0  0  0  0  0  0  0  0  0  0
    6.0097   -1.6109    2.9819 N   0  0  0  0  0  0  0  0  0  0  0  0
    3.3649   -0.3773   -1.6169 C   0  0  0  0  0  0  0  0  0  0  0  0
    3.3233    0.0778   -3.1013 C   0  0  0  0  0  0  0  0  0  0  0  0
    3.0766   -1.8967   -1.5311 C   0  0  0  0  0  0  0  0  0  0  0  0
    2.4932    0.5006   -0.6553 C   0  0  3  0  0  0  0  0  0  0  0  0
    2.1120   -0.4080   -3.8952 C   0  0  0  0  0  0  0  0  0  0  0  0
    1.8799   -2.3776   -2.3498 C   0  0  0  0  0  0  0  0  0  0  0  0
    1.9579   -1.9183   -3.8003 C   0  0  0  0  0  0  0  0  0  0  0  0
    2.9314    1.9867   -0.6627 C   0  0  0  0  0  0  0  0  0  0  0  0
    2.4694   -0.0533    0.8137 C   0  0  0  0  0  0  0  0  0  0  0  0
    4.2287    2.3569   -0.2626 C   0  0  0  0  0  0  0  0  0  0  0  0
    2.0663    3.0151   -1.0854 C   0  0  0  0  0  0  0  0  0  0  0  0
    3.8217   -0.7033    2.6591 C   0  0  0  0  0  0  0  0  0  0  0  0
    4.6401    3.6953   -0.2766 C   0  0  0  0  0  0  0  0  0  0  0  0
    2.4783    4.3522   -1.0995 C   0  0  0  0  0  0  0  0  0  0  0  0
    4.7707   -1.9135    2.7496 C   0  0  0  0  0  0  0  0  0  0  0  0
    5.2175   -4.3318    2.6708 C   0  0  0  0  0  0  0  0  0  0  0  0
    6.6117   -3.8963    2.2714 C   0  0  0  0  0  0  0  0  0  0  0  0
    3.7648    4.6921   -0.6945 C   0  0  0  0  0  0  0  0  0  0  0  0
    6.9866   -2.6885    3.1036 C   0  0  0  0  0  0  0  0  0  0  0  0
    2.8901   -3.5639    2.7210 C   0  0  0  0  0  0  0  0  0  0  0  0
  1  9  1  0  0  0  0
  2 14  1  0  0  0  0
  2 17  1  0  0  0  0
  3 14  2  0  0  0  0
  4 20  1  0  0  0  0
  4 21  1  0  0  0  0
  4 25  1  0  0  0  0
  5 20  2  0  0  0  0
  5 24  1  0  0  0  0
  6  7  1  0  0  0  0
  6  8  1  0  0  0  0
  6  9  1  0  0  0  0
  7 10  1  0  0  0  0
  8 11  1  0  0  0  0
  9 13  1  0  0  0  0
  9 14  1  0  0  0  0
 10 12  1  0  0  0  0
 11 12  1  0  0  0  0
 13 15  2  0  0  0  0
 13 16  1  0  0  0  0
 15 18  1  0  0  0  0
 16 19  2  0  0  0  0
 17 20  1  0  0  0  0
 18 23  2  0  0  0  0
 19 23  1  0  0  0  0
 21 22  1  0  0  0  0
 22 24  1  0  0  0  0
M  END
