219
 OpenBabel10141417503D

 25 26  0  0  1  0  0  0  0  0999 V2000
    0.9248   -0.0019   -0.1958 O   0  0  0  0  0  0  0  0  0  0  0  0
    2.1614   -0.1482    1.9742 O   0  0  0  0  0  0  0  0  0  0  0  0
    4.2308    0.4167    1.2002 O   0  0  0  0  0  0  0  0  0  0  0  0
    3.6328    0.7221    5.4043 N   0  3  0  0  0  0  0  0  0  0  0  0
    2.9278   -0.6701   -1.3960 C   0  0  0  0  0  0  0  0  0  0  0  0
    2.1727   -0.7675   -2.7459 C   0  0  0  0  0  0  0  0  0  0  0  0
    3.1375   -2.0971   -0.8178 C   0  0  0  0  0  0  0  0  0  0  0  0
    2.3024    0.3559   -0.3829 C   0  0  3  0  0  0  0  0  0  0  0  0
    0.9674   -1.7126   -2.7639 C   0  0  0  0  0  0  0  0  0  0  0  0
    1.9001   -2.9893   -0.8243 C   0  0  0  0  0  0  0  0  0  0  0  0
    1.3095   -3.0931   -2.2212 C   0  0  0  0  0  0  0  0  0  0  0  0
    2.3831    1.8283   -0.8424 C   0  0  0  0  0  0  0  0  0  0  0  0
    2.9948    0.8899    4.0103 C   0  0  0  0  0  0  0  0  0  0  0  0
    3.0482    0.2274    0.9887 C   0  0  0  0  0  0  0  0  0  0  0  0
    3.8162    2.0992    6.0993 C   0  0  0  0  0  0  0  0  0  0  0  0
    2.7740   -0.1832    6.3289 C   0  0  0  0  0  0  0  0  0  0  0  0
    2.7674   -0.4247    3.2441 C   0  0  0  0  0  0  0  0  0  0  0  0
    5.0111    0.0478    5.2654 C   0  0  0  0  0  0  0  0  0  0  0  0
    3.6165    2.4470   -1.1319 C   0  0  0  0  0  0  0  0  0  0  0  0
    1.2238    2.6189   -0.9697 C   0  0  0  0  0  0  0  0  0  0  0  0
    4.6436    3.1149    5.3266 C   0  0  0  0  0  0  0  0  0  0  0  0
    1.3613    0.3355    6.5640 C   0  0  0  0  0  0  0  0  0  0  0  0
    3.6784    3.7799   -1.5611 C   0  0  0  0  0  0  0  0  0  0  0  0
    1.2888    3.9545   -1.3787 C   0  0  0  0  0  0  0  0  0  0  0  0
    2.5143    4.5315   -1.6881 C   0  0  0  0  0  0  0  0  0  0  0  0
  1  8  1  0  0  0  0
  2 14  1  0  0  0  0
  2 17  1  0  0  0  0
  3 14  2  0  0  0  0
  4 13  1  0  0  0  0
  4 15  1  0  0  0  0
  4 16  1  0  0  0  0
  4 18  1  0  0  0  0
  5  6  1  0  0  0  0
  5  7  1  0  0  0  0
  5  8  1  0  0  0  0
  6  9  1  0  0  0  0
  7 10  1  0  0  0  0
  8 12  1  0  0  0  0
  8 14  1  0  0  0  0
  9 11  1  0  0  0  0
 10 11  1  0  0  0  0
 12 19  2  0  0  0  0
 12 20  1  0  0  0  0
 13 17  1  0  0  0  0
 15 21  1  0  0  0  0
 16 22  1  0  0  0  0
 19 23  1  0  0  0  0
 20 24  2  0  0  0  0
 23 25  2  0  0  0  0
 24 25  1  0  0  0  0
M  CHG  1   4   1
M  END
