
 OpenBabel10141417513D

 62 68  0  0  1  0  0  0  0  0999 V2000
    5.6462    2.0013  -12.4418 C   0  0  1  0  0  0  0  0  0  0  0  0
    8.3224    1.1034  -12.7096 C   0  0  1  0  0  0  0  0  0  0  0  0
    9.7431   -0.6983  -11.3463 C   0  0  0  0  0  0  0  0  0  0  0  0
    5.7193   -1.9301  -10.3198 C   0  0  0  0  0  0  0  0  0  0  0  0
    3.8933   -1.6470  -10.3520 C   0  0  1  0  0  0  0  0  0  0  0  0
    3.0952   -1.2403  -11.7223 C   0  0  0  0  0  0  0  0  0  0  0  0
    4.1562   -1.5650  -12.4484 C   0  0  0  0  0  0  0  0  0  0  0  0
    5.0605   -0.3535  -12.1755 C   0  0  2  0  0  0  0  0  0  0  0  0
    4.8380    0.3652  -13.5520 C   0  0  0  0  0  0  0  0  0  0  0  0
    4.1076   -2.3542  -13.7403 C   0  0  0  0  0  0  0  0  0  0  0  0
    9.1858    2.4319  -12.6743 C   0  0  0  0  0  0  0  0  0  0  0  0
    8.2633    0.3897  -13.9699 O   0  0  0  0  0  0  0  0  0  0  0  0
    9.1323    0.7759  -14.9883 C   0  0  0  0  0  0  0  0  0  0  0  0
    9.7570   -0.4868  -15.5300 C   0  0  0  0  0  0  0  0  0  0  0  0
    9.3153    1.8773  -15.3932 O   0  0  0  0  0  0  0  0  0  0  0  0
    6.1184   -2.8334   -9.5512 O   0  0  0  0  0  0  0  0  0  0  0  0
    5.5475    3.2337  -11.6772 O   0  0  0  0  0  0  0  0  0  0  0  0
    7.0717    5.3514  -11.2068 C   0  0  0  0  0  0  0  0  0  0  0  0
    8.0261    6.3472  -11.0532 C   0  0  0  0  0  0  0  0  0  0  0  0
    7.9453    7.5161  -11.8034 C   0  0  0  0  0  0  0  0  0  0  0  0
    6.8668    7.7183  -12.6661 C   0  0  0  0  0  0  0  0  0  0  0  0
    5.8974    6.7202  -12.8228 C   0  0  0  0  0  0  0  0  0  0  0  0
    6.0185    5.5067  -12.1157 C   0  0  0  0  0  0  0  0  0  0  0  0
    5.0777    4.3454  -12.3789 C   0  0  0  0  0  0  0  0  0  0  0  0
    4.1765    4.4057  -13.1674 O   0  0  0  0  0  0  0  0  0  0  0  0
    3.3709   -2.9923  -10.0824 O   0  0  0  0  0  0  0  0  0  0  0  0
    1.4055   -2.1671   -9.2762 O   0  0  0  0  0  0  0  0  0  0  0  0
    2.0769   -3.0898   -9.7207 C   0  0  0  0  0  0  0  0  0  0  0  0
    1.5093   -4.4415  -10.0638 C   0  0  0  0  0  0  0  0  0  0  0  0
    7.0361    0.8047  -11.8811 C   0  0  2  0  0  0  0  0  0  0  0  0
    7.0465   -1.0609  -11.3333 C   0  0  2  0  0  0  0  0  0  0  0  0
    7.1871   -2.2365  -12.3922 C   0  0  0  0  0  0  0  0  0  0  0  0
    4.0331    1.4647  -12.9867 C   0  0  1  0  0  0  0  0  0  0  0  0
    3.5077    2.2151  -14.0694 O   0  0  0  0  0  0  0  0  0  0  0  0
    1.6646    0.1522  -13.4968 C   0  0  0  0  0  0  0  0  0  0  0  0
    1.7274    1.1091  -11.2591 C   0  0  0  0  0  0  0  0  0  0  0  0
    8.5078   -1.2538  -10.5656 C   0  0  1  0  0  0  0  0  0  0  0  0
    8.8121   -2.6281  -10.2822 O   0  0  0  0  0  0  0  0  0  0  0  0
    9.4355    0.7345  -11.6668 C   0  0  1  0  0  0  0  0  0  0  0  0
   10.3788    1.5513  -12.4190 O   0  0  0  0  0  0  0  0  0  0  0  0
    2.6297    0.4101  -12.2842 C   0  0  0  0  0  0  0  0  0  0  0  0
    5.2512    0.5244  -10.5628 O   0  0  0  0  0  0  0  0  0  0  0  0
    5.5974    3.3335   -5.1338 C   0  0  0  0  0  0  0  0  0  0  0  0
    5.2571    4.4970   -4.4513 C   0  0  0  0  0  0  0  0  0  0  0  0
    4.2139    5.2703   -4.9111 C   0  0  0  0  0  0  0  0  0  0  0  0
    3.5015    4.8466   -6.0317 C   0  0  0  0  0  0  0  0  0  0  0  0
    4.9311    2.8749   -6.2788 C   0  0  0  0  0  0  0  0  0  0  0  0
    3.8396    3.6536   -6.7003 C   0  0  0  0  0  0  0  0  0  0  0  0
    5.9592    1.8533   -8.4703 C   0  0  2  0  0  0  0  0  0  0  0  0
    5.3401    1.5971   -7.0325 C   0  0  1  0  0  0  0  0  0  0  0  0
    5.8725    0.5565   -9.2936 C   0  0  0  0  0  0  0  0  0  0  0  0
    6.5186   -0.3726   -8.8154 O   0  0  0  0  0  0  0  0  0  0  0  0
    7.3713    2.1590   -8.3601 O   0  0  0  0  0  0  0  0  0  0  0  0
    6.0381    0.5616   -6.1800 N   0  0  0  0  0  0  0  0  0  0  0  0
    8.1646   -0.3090   -3.3314 C   0  0  0  0  0  0  0  0  0  0  0  0
    8.7254   -1.3709   -2.6213 C   0  0  0  0  0  0  0  0  0  0  0  0
    8.7155   -2.6497   -3.1750 C   0  0  0  0  0  0  0  0  0  0  0  0
    8.1492   -2.8631   -4.4343 C   0  0  0  0  0  0  0  0  0  0  0  0
    7.5977   -1.8056   -5.1592 C   0  0  0  0  0  0  0  0  0  0  0  0
    7.6057   -0.5167   -4.6094 C   0  0  0  0  0  0  0  0  0  0  0  0
    7.1963    0.6472   -5.4347 C   0  0  0  0  0  0  0  0  0  0  0  0
    7.9548    1.6341   -5.4005 O   0  0  0  0  0  0  0  0  0  0  0  0
  1 33  1  0  0  0  0
  1 17  1  1  0  0  0
  2 39  1  0  0  0  0
  2 11  1  0  0  0  0
  2 12  1  1  0  0  0
  4 31  1  0  0  0  0
  4  5  1  0  0  0  0
  5  6  1  0  0  0  0
  5 26  1  6  0  0  0
  6  7  2  0  0  0  0
  7 10  1  0  0  0  0
  8  7  1  0  0  0  0
  8 42  1  6  0  0  0
  9  8  1  0  0  0  0
 11 40  1  0  0  0  0
 13 12  1  0  0  0  0
 14 13  1  0  0  0  0
 15 13  2  0  0  0  0
 16  4  2  0  0  0  0
 18 19  1  0  0  0  0
 19 20  2  0  0  0  0
 20 21  1  0  0  0  0
 21 22  2  0  0  0  0
 23 18  2  0  0  0  0
 23 22  1  0  0  0  0
 23 24  1  0  0  0  0
 24 17  1  0  0  0  0
 24 25  2  0  0  0  0
 26 28  1  0  0  0  0
 28 27  2  0  0  0  0
 28 29  1  0  0  0  0
 30  1  1  6  0  0  0
 30  2  1  0  0  0  0
 30 31  1  0  0  0  0
 31 37  1  0  0  0  0
 31 32  1  6  0  0  0
 33 41  1  0  0  0  0
 33  9  1  0  0  0  0
 33 34  1  1  0  0  0
 37  3  1  0  0  0  0
 37 38  1  6  0  0  0
 39  3  1  6  0  0  0
 39 40  1  0  0  0  0
 41  6  1  0  0  0  0
 41 35  1  0  0  0  0
 41 36  1  0  0  0  0
 43 44  2  0  0  0  0
 43 47  1  0  0  0  0
 44 45  1  0  0  0  0
 45 46  2  0  0  0  0
 46 48  1  0  0  0  0
 48 47  2  0  0  0  0
 49 51  1  6  0  0  0
 49 53  1  0  0  0  0
 50 54  1  1  0  0  0
 50 49  1  0  0  0  0
 50 47  1  0  0  0  0
 51 42  1  0  0  0  0
 51 52  2  0  0  0  0
 55 56  1  0  0  0  0
 56 57  2  0  0  0  0
 57 58  1  0  0  0  0
 58 59  2  0  0  0  0
 60 55  2  0  0  0  0
 60 59  1  0  0  0  0
 60 61  1  0  0  0  0
 61 54  1  0  0  0  0
 61 62  2  0  0  0  0
M  END
