377
 OpenBabel10141417483D

 22 26  0  0  1  0  0  0  0  0999 V2000
   -1.7666   -2.0555   -0.4059 O   0  0  0  0  0  0  0  0  0  0  0  0
    0.5716   -2.9184   -3.1942 N   0  0  3  0  0  0  0  0  0  0  0  0
   -0.4562   -0.1818   -0.8193 N   0  0  0  0  0  0  0  0  0  0  0  0
    1.6079   -1.6261   -1.1744 C   0  0  3  0  0  0  0  0  0  0  0  0
    0.4386   -0.8231   -1.8020 C   0  0  1  0  0  0  0  0  0  0  0  0
   -0.2242   -1.6923   -2.9098 C   0  0  0  0  0  0  0  0  0  0  0  0
    1.1532   -3.0348   -0.7618 C   0  0  0  0  0  0  0  0  0  0  0  0
    2.6445   -1.8326   -2.2982 C   0  0  0  0  0  0  0  0  0  0  0  0
    0.5427   -3.7592   -1.9738 C   0  0  0  0  0  0  0  0  0  0  0  0
    1.9710   -2.5429   -3.4865 C   0  0  0  0  0  0  0  0  0  0  0  0
   -1.1766    1.9636    0.1862 C   0  0  1  0  0  0  0  0  0  0  0  0
   -0.0014    1.0882   -0.2486 C   0  0  0  0  0  0  0  0  0  0  0  0
   -2.0358    1.1863    1.1512 C   0  0  0  0  0  0  0  0  0  0  0  0
   -0.6957    3.2929    0.7767 C   0  0  0  0  0  0  0  0  0  0  0  0
   -1.4549   -0.8979   -0.1479 C   0  0  0  0  0  0  0  0  0  0  0  0
   -2.1845   -0.1967    0.9533 C   0  0  0  0  0  0  0  0  0  0  0  0
   -1.8834    4.0665    1.3410 C   0  0  0  0  0  0  0  0  0  0  0  0
   -2.7262    1.8257    2.1982 C   0  0  0  0  0  0  0  0  0  0  0  0
   -2.5395    3.2957    2.4859 C   0  0  0  0  0  0  0  0  0  0  0  0
   -3.0238   -0.9364    1.7945 C   0  0  0  0  0  0  0  0  0  0  0  0
   -3.5501    1.0645    3.0397 C   0  0  0  0  0  0  0  0  0  0  0  0
   -3.7041   -0.3064    2.8350 C   0  0  0  0  0  0  0  0  0  0  0  0
  1 15  2  0  0  0  0
  2  6  1  0  0  0  0
  2  9  1  0  0  0  0
  2 10  1  0  0  0  0
  3 12  1  0  0  0  0
  3 15  1  0  0  0  0
  4  5  1  0  0  0  0
  4  7  1  0  0  0  0
  4  8  1  0  0  0  0
  5  6  1  0  0  0  0
  5  3  1  1  0  0  0
  7  9  1  0  0  0  0
  8 10  1  0  0  0  0
 11 12  1  1  0  0  0
 11 13  1  0  0  0  0
 11 14  1  0  0  0  0
 13 16  1  0  0  0  0
 13 18  2  0  0  0  0
 14 17  1  0  0  0  0
 15 16  1  0  0  0  0
 16 20  2  0  0  0  0
 17 19  1  0  0  0  0
 18 19  1  0  0  0  0
 18 21  1  0  0  0  0
 20 22  1  0  0  0  0
 21 22  2  0  0  0  0
M  END
