
 OpenBabel10141417513D

 41 46  0  0  0  0  0  0  0  0999 V2000
   -0.0513    0.6047    1.5996 C   0  0  1  0  0  0  0  0  0  0  0  0
   -1.4668    0.1145    1.1943 C   0  0  1  0  0  0  0  0  0  0  0  0
    0.9348    0.9169    0.4417 C   0  0  1  0  0  0  0  0  0  0  0  0
    0.6431   -0.4640    2.4860 C   0  0  0  0  0  0  0  0  0  0  0  0
   -1.4040   -0.9522    0.0794 C   0  0  1  0  0  0  0  0  0  0  0  0
   -2.4507    1.2429    0.8371 C   0  0  0  0  0  0  0  0  0  0  0  0
    2.3426    0.6369    1.0806 C   0  0  2  0  0  0  0  0  0  0  0  0
    0.7405    0.0549   -0.8162 C   0  0  0  0  0  0  0  0  0  0  0  0
    0.7801    2.3829   -0.0346 C   0  0  0  0  0  0  0  0  0  0  0  0
    2.1473   -0.4575    2.1807 C   0  0  1  0  0  0  0  0  0  0  0  0
   -2.8038   -1.6667   -0.1213 C   0  0  2  0  0  0  0  0  0  0  0  0
   -0.6975   -0.3228   -1.1373 C   0  0  0  0  0  0  0  0  0  0  0  0
   -3.5721    0.8181   -0.1190 C   0  0  0  0  0  0  0  0  0  0  0  0
    2.7796    1.8410    1.7652 O   0  0  0  0  0  0  0  0  0  0  0  0
    2.7312   -1.9286    1.8866 N   0  3  0  0  0  0  0  0  0  0  0  0
   -3.9866   -0.6603    0.0201 C   0  0  1  0  0  0  0  0  0  0  0  0
   -2.8003   -2.6039   -1.3788 C   0  0  0  0  0  0  0  0  0  0  0  0
   -2.9514   -2.6516    1.1045 C   0  0  0  0  0  0  0  0  0  0  0  0
    3.6380    2.6565    1.0784 C   0  0  0  0  0  0  0  0  0  0  0  0
    4.2560   -1.8049    1.6445 C   0  0  0  0  0  0  0  0  0  0  0  0
    2.5304   -2.8102    3.1558 C   0  0  0  0  0  0  0  0  0  0  0  0
    2.0956   -2.6169    0.6936 C   0  0  0  0  0  0  0  0  0  0  0  0
   -5.2562   -0.9464   -0.7985 C   0  0  0  0  0  0  0  0  0  0  0  0
   -4.0008   -2.5916   -2.3511 C   0  0  1  0  0  0  0  0  0  0  0  0
    3.5736    4.0598    1.6216 C   0  0  0  0  0  0  0  0  0  0  0  0
    4.2778    2.3115    0.1078 O   0  0  0  0  0  0  0  0  0  0  0  0
    4.8928   -3.1736    1.4286 C   0  0  0  0  0  0  0  0  0  0  0  0
    3.2036   -4.1802    3.0306 C   0  0  0  0  0  0  0  0  0  0  0  0
   -5.3107   -2.2393   -1.6071 C   0  0  1  0  0  0  0  0  0  0  0  0
   -3.7049   -1.8216   -3.7241 N   0  3  0  0  0  0  0  0  0  0  0  0
    4.6656   -4.1000    2.6126 C   0  0  0  0  0  0  0  0  0  0  0  0
   -5.6294   -3.3955   -0.7913 O   0  0  0  0  0  0  0  0  0  0  0  0
   -4.9411   -1.9284   -4.6576 C   0  0  0  0  0  0  0  0  0  0  0  0
   -3.3801   -0.3584   -3.4995 C   0  0  0  0  0  0  0  0  0  0  0  0
   -2.5214   -2.5344   -4.4292 C   0  0  0  0  0  0  0  0  0  0  0  0
   -6.9564   -3.5487   -0.5099 C   0  0  0  0  0  0  0  0  0  0  0  0
   -4.7791   -1.1197   -5.9432 C   0  0  0  0  0  0  0  0  0  0  0  0
   -3.1813    0.4286   -4.7803 C   0  0  0  0  0  0  0  0  0  0  0  0
   -7.3117   -4.9956   -0.3765 C   0  0  0  0  0  0  0  0  0  0  0  0
   -7.7646   -2.6320   -0.4812 O   0  0  0  0  0  0  0  0  0  0  0  0
   -4.4111    0.3314   -5.6649 C   0  0  0  0  0  0  0  0  0  0  0  0
  1  2  1  0  0  0  0
  1  3  1  0  0  0  0
  1  4  1  6  0  0  0
  2  5  1  0  0  0  0
  2  6  1  1  0  0  0
  3  7  1  0  0  0  0
  3  8  1  0  0  0  0
  3  9  1  6  0  0  0
  4 10  1  0  0  0  0
  5 11  1  0  0  0  0
  5 12  1  6  0  0  0
  6 13  1  0  0  0  0
  7 10  1  0  0  0  0
  7 14  1  1  0  0  0
  8 12  1  0  0  0  0
 10 15  1  1  0  0  0
 11 16  1  0  0  0  0
 11 17  1  0  0  0  0
 11 18  1  6  0  0  0
 13 16  1  0  0  0  0
 14 19  1  0  0  0  0
 15 20  1  0  0  0  0
 15 21  1  0  0  0  0
 15 22  1  0  0  0  0
 16 23  1  6  0  0  0
 17 24  1  0  0  0  0
 19 25  1  0  0  0  0
 19 26  2  0  0  0  0
 20 27  1  0  0  0  0
 21 28  1  0  0  0  0
 23 29  1  0  0  0  0
 24 29  1  0  0  0  0
 24 30  1  6  0  0  0
 27 31  1  0  0  0  0
 28 31  1  0  0  0  0
 29 32  1  1  0  0  0
 30 33  1  0  0  0  0
 30 34  1  0  0  0  0
 30 35  1  0  0  0  0
 32 36  1  0  0  0  0
 33 37  1  0  0  0  0
 34 38  1  0  0  0  0
 36 39  1  0  0  0  0
 36 40  2  0  0  0  0
 37 41  1  0  0  0  0
 38 41  1  0  0  0  0
M  CHG  2  15   1  30   1
M  END
