213
 OpenBabel10141417493D

 26 28  0  0  1  0  0  0  0  0999 V2000
    0.7892    0.4025   -0.2832 S   0  0  3  0  0  0  0  0  0  0  0  0
    1.0555    9.2644   -3.8017 F   0  0  0  0  0  0  0  0  0  0  0  0
    3.0992    8.5212   -3.9168 F   0  0  0  0  0  0  0  0  0  0  0  0
    2.0786    0.6318    3.0912 O   0  0  0  0  0  0  0  0  0  0  0  0
    1.6198    7.4901   -2.5648 O   0  0  0  0  0  0  0  0  0  0  0  0
   -0.1600    0.8245    0.8253 O   0  0  0  0  0  0  0  0  0  0  0  0
    2.2714   -1.4965    5.0609 O   0  0  0  0  0  0  0  0  0  0  0  0
    0.6273    3.0888   -0.7678 N   0  0  0  0  0  0  0  0  0  0  0  0
    2.0453    2.0058   -2.0999 N   0  0  0  0  0  0  0  0  0  0  0  0
    2.6945   -2.2288    0.9612 N   0  0  0  0  0  0  0  0  0  0  0  0
    1.1972    4.0563   -1.5450 C   0  0  0  0  0  0  0  0  0  0  0  0
    1.1807    1.8799   -1.1085 C   0  0  0  0  0  0  0  0  0  0  0  0
    2.0652    3.3488   -2.3789 C   0  0  0  0  0  0  0  0  0  0  0  0
    2.4449    0.1210    0.4002 C   0  0  0  0  0  0  0  0  0  0  0  0
    2.4788   -0.9721    1.4384 C   0  0  0  0  0  0  0  0  0  0  0  0
    1.0527    5.4389   -1.5973 C   0  0  0  0  0  0  0  0  0  0  0  0
    2.8053    4.0514   -3.3439 C   0  0  0  0  0  0  0  0  0  0  0  0
    2.3420   -0.6795    2.8100 C   0  0  0  0  0  0  0  0  0  0  0  0
    1.8032    6.1328   -2.5652 C   0  0  0  0  0  0  0  0  0  0  0  0
    2.6808    5.4489   -3.4165 C   0  0  0  0  0  0  0  0  0  0  0  0
    2.4126   -1.7484    3.7193 C   0  0  0  0  0  0  0  0  0  0  0  0
    2.6549   -3.0343    3.2260 C   0  0  0  0  0  0  0  0  0  0  0  0
    2.7769   -3.2221    1.8617 C   0  0  0  0  0  0  0  0  0  0  0  0
    2.5266    1.2051    4.3086 C   0  0  0  0  0  0  0  0  0  0  0  0
    1.8044    8.1322   -3.8154 C   0  0  0  0  0  0  0  0  0  0  0  0
    1.8110   -2.5744    5.8737 C   0  0  0  0  0  0  0  0  0  0  0  0
  1  6  2  0  0  0  0
  1 12  1  0  0  0  0
  1 14  1  0  0  0  0
  2 25  1  0  0  0  0
  3 25  1  0  0  0  0
  4 18  1  0  0  0  0
  4 24  1  0  0  0  0
  5 19  1  0  0  0  0
  5 25  1  0  0  0  0
  7 21  1  0  0  0  0
  7 26  1  0  0  0  0
  8 11  1  0  0  0  0
  8 12  1  0  0  0  0
  9 12  2  0  0  0  0
  9 13  1  0  0  0  0
 10 15  2  0  0  0  0
 10 23  1  0  0  0  0
 11 13  2  0  0  0  0
 11 16  1  0  0  0  0
 13 17  1  0  0  0  0
 14 15  1  0  0  0  0
 15 18  1  0  0  0  0
 16 19  2  0  0  0  0
 17 20  2  0  0  0  0
 18 21  2  0  0  0  0
 19 20  1  0  0  0  0
 21 22  1  0  0  0  0
 22 23  2  0  0  0  0
M  END
