1113
 OpenBabel10141417523D

 25 27  0  0  0  0  0  0  0  0999 V2000
    1.8544    0.9119    0.0929 O   0  0  0  0  0  0  0  0  0  0  0  0
    2.6315    3.6933    0.3639 O   0  0  0  0  0  0  0  0  0  0  0  0
   -1.5704   -3.3282   -1.6753 O   0  0  0  0  0  0  0  0  0  0  0  0
   -1.9838   -2.8039   -4.5108 O   0  0  0  0  0  0  0  0  0  0  0  0
   -3.6469    3.4366   -0.8240 N   0  0  0  0  0  0  0  0  0  0  0  0
   -1.3810    2.6633   -0.3887 C   0  0  0  0  0  0  0  0  0  0  0  0
   -3.3829    1.0357   -0.5178 C   0  0  0  0  0  0  0  0  0  0  0  0
   -2.7609    2.4262   -0.6058 C   0  0  0  0  0  0  0  0  0  0  0  0
   -0.9356    4.0041   -0.3440 C   0  0  0  0  0  0  0  0  0  0  0  0
   -2.9793    0.0313   -1.5798 C   0  0  0  0  0  0  0  0  0  0  0  0
   -0.4157    1.6578   -0.2159 C   0  0  0  0  0  0  0  0  0  0  0  0
    0.4200    4.2800   -0.0713 C   0  0  0  0  0  0  0  0  0  0  0  0
    0.9491    1.9382   -0.0057 C   0  0  0  0  0  0  0  0  0  0  0  0
   -1.8557    5.0295   -0.5627 C   0  0  0  0  0  0  0  0  0  0  0  0
    1.3536    3.2577    0.1357 C   0  0  0  0  0  0  0  0  0  0  0  0
   -2.4432   -1.2235   -1.2336 C   0  0  0  0  0  0  0  0  0  0  0  0
   -3.1808    0.3132   -2.9317 C   0  0  0  0  0  0  0  0  0  0  0  0
   -3.1753    4.7018   -0.8060 C   0  0  0  0  0  0  0  0  0  0  0  0
   -2.0922   -2.1746   -2.2097 C   0  0  0  0  0  0  0  0  0  0  0  0
   -2.2820   -1.8617   -3.5650 C   0  0  0  0  0  0  0  0  0  0  0  0
   -2.8338   -0.6211   -3.9112 C   0  0  0  0  0  0  0  0  0  0  0  0
    1.6695   -0.1800   -0.8087 C   0  0  0  0  0  0  0  0  0  0  0  0
    3.4115    2.9339    1.2836 C   0  0  0  0  0  0  0  0  0  0  0  0
   -1.2123   -4.3792   -2.5661 C   0  0  0  0  0  0  0  0  0  0  0  0
   -1.5546   -2.3316   -5.7799 C   0  0  0  0  0  0  0  0  0  0  0  0
  1 13  1  0  0  0  0
  1 22  1  0  0  0  0
  2 15  1  0  0  0  0
  2 23  1  0  0  0  0
  3 19  1  0  0  0  0
  3 24  1  0  0  0  0
  4 20  1  0  0  0  0
  4 25  1  0  0  0  0
  5  8  2  0  0  0  0
  5 18  1  0  0  0  0
  6  8  1  0  0  0  0
  6  9  1  0  0  0  0
  6 11  2  0  0  0  0
  7  8  1  0  0  0  0
  7 10  1  0  0  0  0
  9 12  2  0  0  0  0
  9 14  1  0  0  0  0
 10 16  2  0  0  0  0
 10 17  1  0  0  0  0
 11 13  1  0  0  0  0
 12 15  1  0  0  0  0
 13 15  2  0  0  0  0
 14 18  2  0  0  0  0
 16 19  1  0  0  0  0
 17 21  2  0  0  0  0
 19 20  2  0  0  0  0
 20 21  1  0  0  0  0
M  END
