1384
 OpenBabel10141417533D

 28 31  0  0  1  0  0  0  0  0999 V2000
    6.6902   -7.8627    1.5439 F   0  0  0  0  0  0  0  0  0  0  0  0
   -0.0561  -11.3066    0.5820 O   0  0  0  0  0  0  0  0  0  0  0  0
    1.1373   -6.6335    3.4754 O   0  0  0  0  0  0  0  0  0  0  0  0
   -2.0327   -9.7433    0.1988 O   0  0  0  0  0  0  0  0  0  0  0  0
   -0.2143   -7.8148   -2.2753 O   0  0  0  0  0  0  0  0  0  0  0  0
    5.5375   -5.8362    5.8405 O   0  0  0  0  0  0  0  0  0  0  0  0
    1.3782   -9.3438    0.8985 C   0  0  1  0  0  0  0  0  0  0  0  0
    2.1202   -8.4916   -0.1425 C   0  0  2  0  0  0  0  0  0  0  0  0
    3.1986   -7.5271    0.3554 C   0  0  1  0  0  0  0  0  0  0  0  0
    2.6176   -6.6310    1.5133 C   0  0  2  0  0  0  0  0  0  0  0  0
    0.3534  -10.0746   -0.0406 C   0  0  1  0  0  0  0  0  0  0  0  0
    2.4307   -9.4795   -1.2656 C   0  0  0  0  0  0  0  0  0  0  0  0
    0.7989   -8.4178    1.9692 C   0  0  0  0  0  0  0  0  0  0  0  0
    1.1691  -10.3826   -1.3369 C   0  0  1  0  0  0  0  0  0  0  0  0
    1.8645   -7.4827    2.5859 C   0  0  2  0  0  0  0  0  0  0  0  0
    3.7132   -5.6349    2.0707 C   0  0  1  0  0  0  0  0  0  0  0  0
    4.5567   -8.1688    0.6589 C   0  0  0  0  0  0  0  0  0  0  0  0
    2.2614  -10.3927    1.6399 C   0  0  0  0  0  0  0  0  0  0  0  0
    5.5721   -7.1669    1.1878 C   0  0  1  0  0  0  0  0  0  0  0  0
    4.9985   -6.4092    2.3539 C   0  0  0  0  0  0  0  0  0  0  0  0
   -0.9923   -9.3323   -0.3433 C   0  0  0  0  0  0  0  0  0  0  0  0
    1.5372  -11.8518   -1.5522 C   0  0  0  0  0  0  0  0  0  0  0  0
    3.9930   -4.5299    1.0165 C   0  0  0  0  0  0  0  0  0  0  0  0
    3.2446   -4.8692    3.2975 C   0  0  0  0  0  0  0  0  0  0  0  0
    5.5826   -6.4609    3.5649 C   0  0  0  0  0  0  0  0  0  0  0  0
   -1.0659   -8.0359   -1.1755 C   0  0  0  0  0  0  0  0  0  0  0  0
    3.8305   -4.9126    4.5022 C   0  0  0  0  0  0  0  0  0  0  0  0
    5.0251   -5.7431    4.7265 C   0  0  0  0  0  0  0  0  0  0  0  0
  4 21  2  0  0  0  0
  5 26  1  0  0  0  0
  6 28  2  0  0  0  0
  7  8  1  0  0  0  0
  7 11  1  0  0  0  0
  7 13  1  0  0  0  0
  7 18  1  6  0  0  0
  8  9  1  0  0  0  0
  8 12  1  1  0  0  0
  9 17  1  1  0  0  0
 10  9  1  1  0  0  0
 10 15  1  0  0  0  0
 10 16  1  0  0  0  0
 11 14  1  0  0  0  0
 11 21  1  6  0  0  0
 11  2  1  0  0  0  0
 12 14  1  0  0  0  0
 13 15  1  0  0  0  0
 14 22  1  1  0  0  0
 15  3  1  1  0  0  0
 16 20  1  0  0  0  0
 16 24  1  0  0  0  0
 16 23  1  6  0  0  0
 17 19  1  0  0  0  0
 19 20  1  0  0  0  0
 19  1  1  1  0  0  0
 20 25  2  0  0  0  0
 21 26  1  0  0  0  0
 24 27  2  0  0  0  0
 25 28  1  0  0  0  0
 27 28  1  0  0  0  0
M  END
