910
 OpenBabel10141417523D

 30 32  0  0  1  0  0  0  0  0999 V2000
   -5.7806   -3.9978   -0.5913 O   0  0  0  0  0  0  0  0  0  0  0  0
   -8.0894    1.6924  -12.2032 O   0  0  0  0  0  0  0  0  0  0  0  0
   -7.4621   -1.5752   -9.4987 O   0  0  0  0  0  0  0  0  0  0  0  0
   -1.7878    1.7790   -6.0640 C   0  0  2  0  0  0  0  0  0  0  0  0
   -1.9531    0.5755   -5.0370 C   0  0  2  0  0  0  0  0  0  0  0  0
   -1.9691    1.1523   -7.5034 C   0  0  1  0  0  0  0  0  0  0  0  0
   -1.6931   -0.6513   -5.9341 C   0  0  0  0  0  0  0  0  0  0  0  0
   -2.3812   -0.2953   -7.2339 C   0  0  0  0  0  0  0  0  0  0  0  0
   -2.7400    2.9718   -5.8594 C   0  0  0  0  0  0  0  0  0  0  0  0
   -3.2929    0.4248   -4.2348 C   0  0  2  0  0  0  0  0  0  0  0  0
   -2.8076    2.0008   -8.4492 C   0  0  0  0  0  0  0  0  0  0  0  0
   -0.3319    2.3005   -5.9336 C   0  0  0  0  0  0  0  0  0  0  0  0
   -2.6847    4.0402   -6.9518 C   0  0  0  0  0  0  0  0  0  0  0  0
   -2.4724    3.4789   -8.3530 C   0  0  0  0  0  0  0  0  0  0  0  0
   -3.5852    1.5759   -3.2591 C   0  0  0  0  0  0  0  0  0  0  0  0
   -3.3040   -0.8272   -3.3643 C   0  0  0  0  0  0  0  0  0  0  0  0
   -3.7414    1.6318   -9.3548 C   0  0  0  0  0  0  0  0  0  0  0  0
   -4.3876   -1.6057   -3.2066 C   0  0  0  0  0  0  0  0  0  0  0  0
   -4.1842    0.3158   -9.7169 C   0  0  0  0  0  0  0  0  0  0  0  0
   -4.4641   -2.7650   -2.2282 C   0  0  1  0  0  0  0  0  0  0  0  0
   -5.1214    0.0195  -10.6431 C   0  0  0  0  0  0  0  0  0  0  0  0
   -5.8448   -2.8831   -1.4968 C   0  0  0  0  0  0  0  0  0  0  0  0
   -5.8935    1.0176  -11.4624 C   0  0  0  0  0  0  0  0  0  0  0  0
   -5.4933   -1.4261  -10.9302 C   0  0  0  0  0  0  0  0  0  0  0  0
   -4.0542   -4.0598   -2.9404 C   0  0  0  0  0  0  0  0  0  0  0  0
   -7.4031    0.7993  -11.3258 C   0  0  2  0  0  0  0  0  0  0  0  0
   -7.0125   -1.6546  -10.8531 C   0  0  2  0  0  0  0  0  0  0  0  0
   -7.7845   -0.6351  -11.6887 C   0  0  0  0  0  0  0  0  0  0  0  0
   -7.0193   -3.1408   -2.4524 C   0  0  0  0  0  0  0  0  0  0  0  0
   -6.1284   -1.6377   -0.6431 C   0  0  0  0  0  0  0  0  0  0  0  0
  1 22  1  0  0  0  0
  4  5  1  0  0  0  0
  4  6  1  0  0  0  0
  4  9  1  0  0  0  0
  4 12  1  6  0  0  0
  5  7  1  6  0  0  0
  5 10  1  0  0  0  0
  6  8  1  1  0  0  0
  6 11  1  0  0  0  0
  7  8  1  0  0  0  0
  9 13  1  0  0  0  0
 10 15  1  1  0  0  0
 10 16  1  0  0  0  0
 11 14  1  0  0  0  0
 11 17  2  0  0  0  0
 13 14  1  0  0  0  0
 16 18  2  0  0  0  0
 17 19  1  0  0  0  0
 19 21  2  0  0  0  0
 20 25  1  6  0  0  0
 20 22  1  0  0  0  0
 20 18  1  0  0  0  0
 21 23  1  0  0  0  0
 21 24  1  0  0  0  0
 22 29  1  0  0  0  0
 22 30  1  0  0  0  0
 23 26  1  0  0  0  0
 24 27  1  0  0  0  0
 26  2  1  6  0  0  0
 26 28  1  0  0  0  0
 27 28  1  0  0  0  0
 27  3  1  1  0  0  0
M  END
