715
 OpenBabel10141417483D

 24 27  0  0  1  0  0  0  0  0999 V2000
    8.3185    0.8858   -6.2230 F   0  0  0  0  0  0  0  0  0  0  0  0
    5.4709   -2.4024   -0.6181 O   0  0  0  0  0  0  0  0  0  0  0  0
    1.5969   -4.9108   -1.8378 O   0  0  0  0  0  0  0  0  0  0  0  0
    2.8856   -6.7212   -2.7763 O   0  0  0  0  0  0  0  0  0  0  0  0
    7.2940    0.4278    2.0398 N   0  0  0  0  0  0  0  0  0  0  0  0
    6.6936    0.3117   -0.8310 C   0  0  1  0  0  0  0  0  0  0  0  0
    7.3117   -0.8949   -0.0778 C   0  0  1  0  0  0  0  0  0  0  0  0
    6.9901    1.6303   -0.0884 C   0  0  0  0  0  0  0  0  0  0  0  0
    6.9245   -0.8433    1.4120 C   0  0  0  0  0  0  0  0  0  0  0  0
    6.6101    1.5411    1.3847 C   0  0  0  0  0  0  0  0  0  0  0  0
    6.8913   -2.2508   -0.6784 C   0  0  0  0  0  0  0  0  0  0  0  0
    7.1543    0.4240   -2.2798 C   0  0  0  0  0  0  0  0  0  0  0  0
    6.2106    0.3556   -3.3174 C   0  0  0  0  0  0  0  0  0  0  0  0
    8.5069    0.6271   -2.6104 C   0  0  0  0  0  0  0  0  0  0  0  0
    6.6048    0.5070   -4.6483 C   0  0  0  0  0  0  0  0  0  0  0  0
    8.8986    0.7802   -3.9417 C   0  0  0  0  0  0  0  0  0  0  0  0
    4.9436   -3.5419   -1.1671 C   0  0  0  0  0  0  0  0  0  0  0  0
    7.9434    0.7237   -4.9475 C   0  0  0  0  0  0  0  0  0  0  0  0
    3.5444   -3.5971   -1.1714 C   0  0  0  0  0  0  0  0  0  0  0  0
    5.6877   -4.6090   -1.7054 C   0  0  0  0  0  0  0  0  0  0  0  0
    2.9370   -4.7023   -1.7326 C   0  0  0  0  0  0  0  0  0  0  0  0
    3.6688   -5.7344   -2.2665 C   0  0  0  0  0  0  0  0  0  0  0  0
    5.0459   -5.7217   -2.2628 C   0  0  0  0  0  0  0  0  0  0  0  0
    1.5732   -6.1723   -2.5381 C   0  0  0  0  0  0  0  0  0  0  0  0
  1 18  1  0  0  0  0
  2 11  1  0  0  0  0
  2 17  1  0  0  0  0
  3 21  1  0  0  0  0
  3 24  1  0  0  0  0
  4 22  1  0  0  0  0
  4 24  1  0  0  0  0
  5  9  1  0  0  0  0
  5 10  1  0  0  0  0
  6  7  1  0  0  0  0
  6  8  1  0  0  0  0
  6 12  1  6  0  0  0
  7  9  1  0  0  0  0
  7 11  1  6  0  0  0
  8 10  1  0  0  0  0
 12 13  2  0  0  0  0
 12 14  1  0  0  0  0
 13 15  1  0  0  0  0
 14 16  2  0  0  0  0
 15 18  2  0  0  0  0
 16 18  1  0  0  0  0
 17 19  2  0  0  0  0
 17 20  1  0  0  0  0
 19 21  1  0  0  0  0
 20 23  2  0  0  0  0
 21 22  2  0  0  0  0
 22 23  1  0  0  0  0
M  END
