1421
 OpenBabel10141417483D

 42 45  0  0  1  0  0  0  0  0999 V2000
    4.1880    3.6276   -5.9585 O   0  0  0  0  0  0  0  0  0  0  0  0
    1.8281    6.1522   -7.2563 O   0  0  0  0  0  0  0  0  0  0  0  0
    4.1386    1.2485   -6.3201 O   0  0  0  0  0  0  0  0  0  0  0  0
    3.3988   -0.1529   -3.2090 O   0  0  0  0  0  0  0  0  0  0  0  0
    1.1184    3.1770   -7.9108 O   0  0  0  0  0  0  0  0  0  0  0  0
    1.8867    8.0640   -5.8059 O   0  0  0  0  0  0  0  0  0  0  0  0
    1.5366    0.2445   -1.6983 O   0  0  0  0  0  0  0  0  0  0  0  0
    3.8495    2.5872   -3.0701 O   0  0  0  0  0  0  0  0  0  0  0  0
    2.1805   10.8071   -8.8691 O   0  0  0  0  0  0  0  0  0  0  0  0
    3.8182   10.3578   -5.9044 O   0  0  0  0  0  0  0  0  0  0  0  0
    3.5293   -3.2293   -0.5353 O   0  0  0  0  0  0  0  0  0  0  0  0
    2.7978   -0.5137   -7.9912 O   0  0  0  0  0  0  0  0  0  0  0  0
    0.5814   -2.5314   -1.6658 O   0  0  0  0  0  0  0  0  0  0  0  0
   -0.4013    9.6970   -6.9970 O   0  0  0  0  0  0  0  0  0  0  0  0
    5.5548    6.0148   -7.0002 N   0  0  0  0  0  0  0  0  0  0  0  0
    3.3268    3.0434  -10.1160 N   0  0  0  0  0  0  0  0  0  0  0  0
    2.7579    7.8650   -9.4251 N   0  0  0  0  0  0  0  0  0  0  0  0
    5.1463   -0.8136   -0.9509 N   0  0  0  0  0  0  0  0  0  0  0  0
   -0.6364    1.2150    0.1168 N   0  0  0  0  0  0  0  0  0  0  0  0
    2.9301    4.1045   -6.4880 C   0  0  1  0  0  0  0  0  0  0  0  0
    3.0622    5.6367   -6.7193 C   0  0  1  0  0  0  0  0  0  0  0  0
    4.2509    5.8875   -7.6679 C   0  0  2  0  0  0  0  0  0  0  0  0
    2.5468    3.3653   -7.7937 C   0  0  2  0  0  0  0  0  0  0  0  0
    3.0464    4.0621   -9.0785 C   0  0  1  0  0  0  0  0  0  0  0  0
    4.3124    4.8985   -8.8586 C   0  0  0  0  0  0  0  0  0  0  0  0
    4.2697    2.3071   -5.3979 C   0  0  2  0  0  0  0  0  0  0  0  0
    2.8956    0.6157   -4.3042 C   0  0  1  0  0  0  0  0  0  0  0  0
    3.2757    2.0922   -4.2669 C   0  0  1  0  0  0  0  0  0  0  0  0
    3.3966    0.1597   -5.7178 C   0  0  1  0  0  0  0  0  0  0  0  0
    1.5394    7.5638   -7.0936 C   0  0  1  0  0  0  0  0  0  0  0  0
    1.9736    8.4645   -8.3095 C   0  0  1  0  0  0  0  0  0  0  0  0
    2.6393    9.8077   -7.9387 C   0  0  2  0  0  0  0  0  0  0  0  0
    2.9809    0.2200   -1.8617 C   0  0  1  0  0  0  0  0  0  0  0  0
    2.4984   10.3174   -6.5022 C   0  0  1  0  0  0  0  0  0  0  0  0
    3.6738   -0.7824   -0.8742 C   0  0  1  0  0  0  0  0  0  0  0  0
    1.6097    9.4638   -5.6018 C   0  0  1  0  0  0  0  0  0  0  0  0
    2.9216   -2.1002   -1.1556 C   0  0  2  0  0  0  0  0  0  0  0  0
    2.2554   -0.1594   -6.7154 C   0  0  0  0  0  0  0  0  0  0  0  0
    1.4498   -1.9481   -0.6810 C   0  0  1  0  0  0  0  0  0  0  0  0
    1.0994   -0.4550   -0.5003 C   0  0  2  0  0  0  0  0  0  0  0  0
    0.1301    9.8834   -5.6944 C   0  0  0  0  0  0  0  0  0  0  0  0
   -0.3896   -0.2044   -0.1873 C   0  0  0  0  0  0  0  0  0  0  0  0
  3 26  1  0  0  0  0
  3 29  1  0  0  0  0
  6 30  1  0  0  0  0
  6 36  1  0  0  0  0
  7 33  1  0  0  0  0
  7 40  1  0  0  0  0
 12 38  1  0  0  0  0
 14 41  1  0  0  0  0
 19 42  1  0  0  0  0
 20 21  1  0  0  0  0
 20 23  1  0  0  0  0
 20  1  1  6  0  0  0
 21 22  1  0  0  0  0
 21  2  1  6  0  0  0
 22 15  1  1  0  0  0
 22 25  1  0  0  0  0
 23  5  1  6  0  0  0
 23 24  1  0  0  0  0
 24 16  1  6  0  0  0
 24 25  1  0  0  0  0
 26  1  1  6  0  0  0
 26 28  1  0  0  0  0
 27 28  1  0  0  0  0
 27 29  1  0  0  0  0
 27  4  1  1  0  0  0
 28  8  1  1  0  0  0
 29 38  1  6  0  0  0
 30 31  1  0  0  0  0
 30  2  1  6  0  0  0
 31 32  1  0  0  0  0
 31 17  1  6  0  0  0
 32  9  1  6  0  0  0
 32 34  1  0  0  0  0
 33 35  1  0  0  0  0
 33  4  1  6  0  0  0
 34 36  1  0  0  0  0
 34 10  1  1  0  0  0
 35 37  1  0  0  0  0
 35 18  1  6  0  0  0
 36 41  1  6  0  0  0
 37 11  1  1  0  0  0
 37 39  1  0  0  0  0
 39 40  1  0  0  0  0
 39 13  1  6  0  0  0
 40 42  1  6  0  0  0
M  END
