
 OpenBabel10141417533D

 77 84  0  0  1  0  0  0  0  0999 V2000
    4.0998    0.6880    0.4267 C   0  0  2  0  0  0  0  0  0  0  0  0
    5.6034    0.9105    0.2433 C   0  0  0  0  0  0  0  0  0  0  0  0
    3.6502   -0.6474   -0.0283 N   0  0  0  0  0  0  0  0  0  0  0  0
    3.1971    1.7854   -0.1989 C   0  0  0  0  0  0  0  0  0  0  0  0
    6.1352    0.7473   -1.1830 C   0  0  0  0  0  0  0  0  0  0  0  0
    7.6467    1.0266   -1.2304 C   0  0  0  0  0  0  0  0  0  0  0  0
    8.2606    0.8597   -2.6220 C   0  0  0  0  0  0  0  0  0  0  0  0
    7.7181    1.8065   -3.5895 N   0  0  0  0  0  0  0  0  0  0  0  0
    1.8641    1.4642   -0.1193 N   0  0  0  0  0  0  0  0  0  0  0  0
    3.5964    2.8587   -0.6335 O   0  0  0  0  0  0  0  0  0  0  0  0
    2.9065   -1.4560    0.8061 C   0  0  0  0  0  0  0  0  0  0  0  0
    2.1300   -2.6298    0.1576 C   0  0  2  0  0  0  0  0  0  0  0  0
    2.7635   -1.1856    2.0019 O   0  0  0  0  0  0  0  0  0  0  0  0
    1.0071   -2.8592    1.0793 N   0  0  0  0  0  0  0  0  0  0  0  0
    2.9710   -3.8571   -0.2215 C   0  0  0  0  0  0  0  0  0  0  0  0
    0.7602    2.2410   -0.6874 C   0  0  1  0  0  0  0  0  0  0  0  0
    0.4979    1.7920   -2.1263 C   0  0  0  0  0  0  0  0  0  0  0  0
   -0.4167    1.8753    0.2272 C   0  0  0  0  0  0  0  0  0  0  0  0
   -0.4462    0.8052    0.8440 O   0  0  0  0  0  0  0  0  0  0  0  0
   -1.4031    2.8172    0.3396 N   0  0  0  0  0  0  0  0  0  0  0  0
   -0.5941    2.5297   -2.8526 C   0  0  0  0  0  0  0  0  0  0  0  0
   -0.3149    3.6870   -3.5888 C   0  0  0  0  0  0  0  0  0  0  0  0
   -1.3131    4.2956   -4.3588 C   0  0  0  0  0  0  0  0  0  0  0  0
   -2.6121    3.7862   -4.3535 C   0  0  0  0  0  0  0  0  0  0  0  0
   -2.9044    2.6867   -3.5467 C   0  0  0  0  0  0  0  0  0  0  0  0
   -1.9018    2.0422   -2.8307 C   0  0  0  0  0  0  0  0  0  0  0  0
   -3.5362    4.4288   -5.1387 O   0  0  0  0  0  0  0  0  0  0  0  0
   -4.6285    3.5889   -5.5400 C   0  0  0  0  0  0  0  0  0  0  0  0
   -5.6675    4.3428   -6.3288 C   0  0  0  0  0  0  0  0  0  0  0  0
   -5.3167    5.3734   -7.2040 C   0  0  0  0  0  0  0  0  0  0  0  0
   -6.3070    6.0827   -7.8813 C   0  0  0  0  0  0  0  0  0  0  0  0
   -7.6511    5.7526   -7.7061 C   0  0  0  0  0  0  0  0  0  0  0  0
   -8.0097    4.7020   -6.8652 C   0  0  0  0  0  0  0  0  0  0  0  0
   -7.0215    3.9915   -6.1885 C   0  0  0  0  0  0  0  0  0  0  0  0
   -2.5458    2.5775    1.2116 C   0  0  2  0  0  0  0  0  0  0  0  0
   -3.7244    2.1004    0.3505 C   0  0  0  0  0  0  0  0  0  0  0  0
   -2.9180    3.8799    1.9405 C   0  0  0  0  0  0  0  0  0  0  0  0
   -4.0765    3.7140    2.8940 C   0  0  0  0  0  0  0  0  0  0  0  0
   -3.8632    3.3248    4.2215 C   0  0  0  0  0  0  0  0  0  0  0  0
   -4.9464    3.1436    5.0831 C   0  0  0  0  0  0  0  0  0  0  0  0
   -6.2482    3.3416    4.6242 C   0  0  0  0  0  0  0  0  0  0  0  0
   -6.4704    3.7224    3.3035 C   0  0  0  0  0  0  0  0  0  0  0  0
   -5.3899    3.9122    2.4441 C   0  0  0  0  0  0  0  0  0  0  0  0
   -4.2576    0.8601    0.6013 N   0  0  0  0  0  0  0  0  0  0  0  0
   -4.2141    2.8528   -0.4986 O   0  0  0  0  0  0  0  0  0  0  0  0
   -0.2154   -3.2977    0.6366 C   0  0  0  0  0  0  0  0  0  0  0  0
   -0.3260   -4.0271   -0.3514 O   0  0  0  0  0  0  0  0  0  0  0  0
   -1.4539   -2.6740    1.3569 C   0  0  2  0  0  0  0  0  0  0  0  0
   -2.0473   -3.5713    2.4223 C   0  0  0  0  0  0  0  0  0  0  0  0
   -2.4036   -2.4061    0.2688 N   0  0  0  0  0  0  0  0  0  0  0  0
   -2.1214   -3.1323    3.7561 C   0  0  0  0  0  0  0  0  0  0  0  0
   -2.6668   -3.9500    4.7508 C   0  0  0  0  0  0  0  0  0  0  0  0
   -3.1475   -5.2165    4.4288 C   0  0  0  0  0  0  0  0  0  0  0  0
   -3.0908   -5.6632    3.1111 C   0  0  0  0  0  0  0  0  0  0  0  0
   -2.5470   -4.8472    2.1146 C   0  0  0  0  0  0  0  0  0  0  0  0
   -3.0762   -1.2557   -0.0160 C   0  0  0  0  0  0  0  0  0  0  0  0
   -3.3447   -1.0391   -1.2012 O   0  0  0  0  0  0  0  0  0  0  0  0
   -3.6141   -0.3544    1.1279 C   0  0  2  0  0  0  0  0  0  0  0  0
   -5.6004    0.5517    0.1428 C   0  0  0  0  0  0  0  0  0  0  0  0
   -4.7908   -1.0527    1.7909 C   0  0  0  0  0  0  0  0  0  0  0  0
   -5.9984   -0.7268    0.8924 C   0  0  1  0  0  0  0  0  0  0  0  0
   -7.1568   -0.4348    1.6881 O   0  0  0  0  0  0  0  0  0  0  0  0
   -7.6360   -1.4121    2.4806 C   0  0  0  0  0  0  0  0  0  0  0  0
   -7.1691   -2.5515    2.5704 O   0  0  0  0  0  0  0  0  0  0  0  0
   -8.7140   -1.0232    3.2058 N   0  0  0  0  0  0  0  0  0  0  0  0
   -9.3688    0.2684    3.0953 C   0  0  0  0  0  0  0  0  0  0  0  0
  -10.0082    0.4870    1.7135 C   0  0  0  0  0  0  0  0  0  0  0  0
  -10.6784    1.7804    1.6050 N   0  0  0  0  0  0  0  0  0  0  0  0
    3.6848   -4.5205    0.9151 C   0  0  0  0  0  0  0  0  0  0  0  0
    3.2276   -5.6272    1.7061 C   0  0  0  0  0  0  0  0  0  0  0  0
    4.9389   -4.1837    1.3878 C   0  0  0  0  0  0  0  0  0  0  0  0
    4.1869   -5.8548    2.6939 C   0  0  0  0  0  0  0  0  0  0  0  0
    5.2245   -4.9852    2.4588 N   0  0  0  0  0  0  0  0  0  0  0  0
    4.0303   -6.8140    3.7020 C   0  0  0  0  0  0  0  0  0  0  0  0
    2.8717   -7.5940    3.6806 C   0  0  0  0  0  0  0  0  0  0  0  0
    1.9169   -7.4276    2.6805 C   0  0  0  0  0  0  0  0  0  0  0  0
    2.0781   -6.4461    1.6929 C   0  0  0  0  0  0  0  0  0  0  0  0
  1  2  1  6  0  0  0
  1  3  1  0  0  0  0
  1  4  1  0  0  0  0
  2  5  1  0  0  0  0
  3 11  1  0  0  0  0
  4  9  1  0  0  0  0
  4 10  2  0  0  0  0
  5  6  1  0  0  0  0
  6  7  1  0  0  0  0
  7  8  1  0  0  0  0
  9 16  1  0  0  0  0
 11 12  1  0  0  0  0
 11 13  2  0  0  0  0
 12 14  1  0  0  0  0
 12 15  1  1  0  0  0
 14 46  1  0  0  0  0
 15 69  1  0  0  0  0
 16 18  1  0  0  0  0
 16 17  1  6  0  0  0
 17 21  1  0  0  0  0
 18 19  2  0  0  0  0
 18 20  1  0  0  0  0
 20 35  1  0  0  0  0
 21 22  2  0  0  0  0
 21 26  1  0  0  0  0
 22 23  1  0  0  0  0
 23 24  2  0  0  0  0
 24 25  1  0  0  0  0
 24 27  1  0  0  0  0
 25 26  2  0  0  0  0
 27 28  1  0  0  0  0
 28 29  1  0  0  0  0
 29 30  2  0  0  0  0
 29 34  1  0  0  0  0
 30 31  1  0  0  0  0
 31 32  2  0  0  0  0
 32 33  1  0  0  0  0
 33 34  2  0  0  0  0
 35 36  1  0  0  0  0
 35 37  1  6  0  0  0
 36 44  1  0  0  0  0
 36 45  2  0  0  0  0
 37 38  1  0  0  0  0
 38 39  2  0  0  0  0
 38 43  1  0  0  0  0
 39 40  1  0  0  0  0
 40 41  2  0  0  0  0
 41 42  1  0  0  0  0
 42 43  2  0  0  0  0
 44 58  1  0  0  0  0
 44 59  1  0  0  0  0
 46 47  2  0  0  0  0
 46 48  1  0  0  0  0
 48 50  1  0  0  0  0
 48 49  1  1  0  0  0
 49 51  2  0  0  0  0
 49 55  1  0  0  0  0
 50 56  1  0  0  0  0
 51 52  1  0  0  0  0
 52 53  2  0  0  0  0
 53 54  1  0  0  0  0
 54 55  2  0  0  0  0
 56 57  2  0  0  0  0
 58 56  1  6  0  0  0
 58 60  1  0  0  0  0
 59 61  1  0  0  0  0
 60 61  1  0  0  0  0
 61 62  1  1  0  0  0
 62 63  1  0  0  0  0
 63 64  2  0  0  0  0
 63 65  1  0  0  0  0
 65 66  1  0  0  0  0
 66 67  1  0  0  0  0
 67 68  1  0  0  0  0
 70 69  1  0  0  0  0
 70 72  2  0  0  0  0
 71 69  2  0  0  0  0
 72 74  1  0  0  0  0
 73 71  1  0  0  0  0
 73 72  1  0  0  0  0
 75 74  2  0  0  0  0
 76 75  1  0  0  0  0
 77 70  1  0  0  0  0
 77 76  2  0  0  0  0
M  END
