487
 OpenBabel10141417543D

 24 26  0  0  0  0  0  0  0  0999 V2000
    0.8611   -0.3739   -0.2808 F   0  0  0  0  0  0  0  0  0  0  0  0
    4.4815   -3.7422    0.2135 O   0  0  0  0  0  0  0  0  0  0  0  0
    6.7017   -4.9585    0.6227 O   0  0  0  0  0  0  0  0  0  0  0  0
    8.5641   -3.7161    0.8768 O   0  0  0  0  0  0  0  0  0  0  0  0
    2.1353    2.2477   -0.1505 N   0  0  0  0  0  0  0  0  0  0  0  0
    0.1153    4.3873    0.2964 N   0  0  0  0  0  0  0  0  0  0  0  0
    6.3903   -0.1527    0.4047 N   0  0  0  0  0  0  0  0  0  0  0  0
    0.8617    2.2645   -0.9075 C   0  0  0  0  0  0  0  0  0  0  0  0
    2.0479    2.9402    1.1600 C   0  0  0  0  0  0  0  0  0  0  0  0
    0.2865    3.6981   -1.0028 C   0  0  0  0  0  0  0  0  0  0  0  0
    1.4065    4.3445    1.0163 C   0  0  0  0  0  0  0  0  0  0  0  0
    2.8057    1.0056   -0.0586 C   0  0  0  0  0  0  0  0  0  0  0  0
    4.9868   -0.1484    0.2307 C   0  0  0  0  0  0  0  0  0  0  0  0
    4.2090    1.0226    0.1206 C   0  0  0  0  0  0  0  0  0  0  0  0
   -0.9605    3.7906    1.0881 C   0  0  0  0  0  0  0  0  0  0  0  0
    2.1886   -0.2542   -0.1346 C   0  0  0  0  0  0  0  0  0  0  0  0
    4.2983   -1.3770    0.1587 C   0  0  0  0  0  0  0  0  0  0  0  0
    2.9154   -1.4328   -0.0254 C   0  0  0  0  0  0  0  0  0  0  0  0
    7.1431    1.1142    0.4565 C   0  0  0  0  0  0  0  0  0  0  0  0
    5.0438   -2.6507    0.2859 C   0  0  0  0  0  0  0  0  0  0  0  0
    7.0503   -1.3675    0.5570 C   0  0  0  0  0  0  0  0  0  0  0  0
    6.5019   -2.5884    0.5118 C   0  0  0  0  0  0  0  0  0  0  0  0
    7.2170    1.6470    1.8798 C   0  0  0  0  0  0  0  0  0  0  0  0
    7.3596   -3.7789    0.6873 C   0  0  0  0  0  0  0  0  0  0  0  0
  1 16  1  0  0  0  0
  2 20  2  0  0  0  0
  3 24  1  0  0  0  0
  4 24  2  0  0  0  0
  5  8  1  0  0  0  0
  5  9  1  0  0  0  0
  5 12  1  0  0  0  0
  6 10  1  0  0  0  0
  6 11  1  0  0  0  0
  6 15  1  0  0  0  0
  7 13  1  0  0  0  0
  7 19  1  0  0  0  0
  7 21  1  0  0  0  0
  8 10  1  0  0  0  0
  9 11  1  0  0  0  0
 12 14  1  0  0  0  0
 12 16  2  0  0  0  0
 13 14  2  0  0  0  0
 13 17  1  0  0  0  0
 16 18  1  0  0  0  0
 17 18  2  0  0  0  0
 17 20  1  0  0  0  0
 19 23  1  0  0  0  0
 20 22  1  0  0  0  0
 21 22  2  0  0  0  0
 22 24  1  0  0  0  0
M  END
