642
 OpenBabel10141419023D

 31 33  0  0  1  0  0  0  0  0999 V2000
  -11.6052   -0.3022    4.5067 O   0  0  0  0  0  0  0  0  0  0  0  0
   -7.9126    5.6723    0.0055 O   0  0  0  0  0  0  0  0  0  0  0  0
   -9.9297    7.7257   -2.0632 O   0  0  0  0  0  0  0  0  0  0  0  0
   -8.2569    8.9756   -2.9128 O   0  0  0  0  0  0  0  0  0  0  0  0
   -5.7028    9.8049    2.7772 O   0  0  0  0  0  0  0  0  0  0  0  0
   -5.4336    9.1268    0.6727 O   0  0  0  0  0  0  0  0  0  0  0  0
  -16.0449    0.7045    5.0662 N   0  0  0  0  0  0  0  0  0  0  0  0
   -9.0530    7.6277    0.3777 N   0  0  0  0  0  0  0  0  0  0  0  0
  -15.1293   -1.1932    6.2451 N   0  0  0  0  0  0  0  0  0  0  0  0
  -12.8039   -1.6219    5.9642 N   0  0  0  0  0  0  0  0  0  0  0  0
  -14.1098   -2.8844    7.3831 N   0  0  0  0  0  0  0  0  0  0  0  0
  -13.2142    2.1306    3.1333 C   0  0  0  0  0  0  0  0  0  0  0  0
  -14.1709    1.3607    4.0009 C   0  0  0  0  0  0  0  0  0  0  0  0
  -12.5319    3.2783    3.8891 C   0  0  0  0  0  0  0  0  0  0  0  0
  -13.8812    0.2099    4.7964 C   0  0  0  0  0  0  0  0  0  0  0  0
  -11.5752    4.0770    3.0301 C   0  0  0  0  0  0  0  0  0  0  0  0
  -15.0514   -0.1498    5.4141 C   0  0  0  0  0  0  0  0  0  0  0  0
  -15.5213    1.6316    4.1917 C   0  0  0  0  0  0  0  0  0  0  0  0
   -8.1946    8.4333   -0.5160 C   0  0  2  0  0  0  0  0  0  0  0  0
   -8.1077    9.9050   -0.0655 C   0  0  0  0  0  0  0  0  0  0  0  0
  -12.0211    5.1848    2.2959 C   0  0  0  0  0  0  0  0  0  0  0  0
  -10.2240    3.7112    2.9512 C   0  0  0  0  0  0  0  0  0  0  0  0
   -9.7815    5.5514    1.4382 C   0  0  0  0  0  0  0  0  0  0  0  0
  -12.6723   -0.5743    5.0553 C   0  0  0  0  0  0  0  0  0  0  0  0
   -7.5538   10.1391    1.3429 C   0  0  0  0  0  0  0  0  0  0  0  0
  -11.1325    5.9164    1.4999 C   0  0  0  0  0  0  0  0  0  0  0  0
   -9.3321    4.4417    2.1594 C   0  0  0  0  0  0  0  0  0  0  0  0
   -8.8221    6.2748    0.5628 C   0  0  0  0  0  0  0  0  0  0  0  0
  -13.9636   -1.8713    6.4914 C   0  0  0  0  0  0  0  0  0  0  0  0
   -8.7566    8.4006   -1.9571 C   0  0  0  0  0  0  0  0  0  0  0  0
   -6.1493    9.6354    1.5202 C   0  0  0  0  0  0  0  0  0  0  0  0
  1 24  2  0  0  0  0
  2 28  2  0  0  0  0
  3 30  1  0  0  0  0
  4 30  2  0  0  0  0
  5 31  1  0  0  0  0
  6 31  2  0  0  0  0
  7 17  1  0  0  0  0
  7 18  1  0  0  0  0
  8 28  1  0  0  0  0
  9 17  1  0  0  0  0
  9 29  1  0  0  0  0
 10 24  1  0  0  0  0
 10 29  2  0  0  0  0
 11 29  1  0  0  0  0
 12 13  1  0  0  0  0
 12 14  1  0  0  0  0
 13 15  1  0  0  0  0
 13 18  2  0  0  0  0
 14 16  1  0  0  0  0
 15 17  2  0  0  0  0
 15 24  1  0  0  0  0
 16 21  2  0  0  0  0
 16 22  1  0  0  0  0
 19 30  1  6  0  0  0
 19 20  1  0  0  0  0
 19  8  1  0  0  0  0
 20 25  1  0  0  0  0
 21 26  1  0  0  0  0
 22 27  2  0  0  0  0
 23 26  2  0  0  0  0
 23 27  1  0  0  0  0
 23 28  1  0  0  0  0
 25 31  1  0  0  0  0
M  END
