885
 OpenBabel10141417503D

 17 19  0  0  0  0  0  0  0  0999 V2000
    0.7733   -0.3151   -0.2997 O   0  0  0  0  0  0  0  0  0  0  0  0
    2.8181   -1.3401    0.0449 N   0  0  0  0  0  0  0  0  0  0  0  0
    4.7866   -0.0272    0.1452 N   0  0  0  0  0  0  0  0  0  0  0  0
    0.7123    2.5593    0.5180 N   0  0  0  0  0  0  0  0  0  0  0  0
    2.3985    3.4019   -0.7262 N   0  0  0  0  0  0  0  0  0  0  0  0
    0.5215    3.8270    0.1293 N   0  0  0  0  0  0  0  0  0  0  0  0
    1.5053    4.3721   -0.5948 N   0  0  0  0  0  0  0  0  0  0  0  0
    4.1986   -1.1845    0.1435 C   0  0  0  0  0  0  0  0  0  0  0  0
    5.0263   -2.4368    0.2502 C   0  0  0  0  0  0  0  0  0  0  0  0
    1.9854   -0.2258   -0.0922 C   0  0  0  0  0  0  0  0  0  0  0  0
    2.6578    1.1008   -0.0223 C   0  0  0  0  0  0  0  0  0  0  0  0
    2.2429   -2.6070    0.0355 C   0  0  0  0  0  0  0  0  0  0  0  0
    4.4073   -3.6276    0.2432 C   0  0  0  0  0  0  0  0  0  0  0  0
    3.9949    1.0827    0.0681 C   0  0  0  0  0  0  0  0  0  0  0  0
    2.9779   -3.7198    0.1318 C   0  0  0  0  0  0  0  0  0  0  0  0
    6.5103   -2.2809    0.3602 C   0  0  0  0  0  0  0  0  0  0  0  0
    1.8911    2.3004   -0.0718 C   0  0  0  0  0  0  0  0  0  0  0  0
  1 10  2  0  0  0  0
  2  8  1  0  0  0  0
  2 10  1  0  0  0  0
  2 12  1  0  0  0  0
  3  8  2  0  0  0  0
  3 14  1  0  0  0  0
  4  6  1  0  0  0  0
  4 17  2  0  0  0  0
  5  7  2  0  0  0  0
  5 17  1  0  0  0  0
  6  7  1  0  0  0  0
  8  9  1  0  0  0  0
  9 13  2  0  0  0  0
  9 16  1  0  0  0  0
 10 11  1  0  0  0  0
 11 14  2  0  0  0  0
 11 17  1  0  0  0  0
 12 15  2  0  0  0  0
 13 15  1  0  0  0  0
M  END
