299
 OpenBabel10141417493D

 18 19  0  0  0  0  0  0  0  0999 V2000
    2.5490    3.2221    1.3585 O   0  0  0  0  0  0  0  0  0  0  0  0
    0.7238   -0.6831    1.1553 O   0  0  0  0  0  0  0  0  0  0  0  0
    1.7144    1.9024    9.5806 O   0  0  0  0  0  0  0  0  0  0  0  0
    1.2236    0.8342    5.1713 N   0  0  0  0  0  0  0  0  0  0  0  0
    2.4189    2.9003    5.7240 N   0  0  0  0  0  0  0  0  0  0  0  0
    0.7867    0.1856    7.2697 N   0  0  0  0  0  0  0  0  0  0  0  0
    2.6162    3.3743    8.0549 N   0  0  0  0  0  0  0  0  0  0  0  0
    3.4878    4.7741    6.4396 N   0  0  0  0  0  0  0  0  0  0  0  0
    2.6222    0.8058    1.5212 C   0  0  0  0  0  0  0  0  0  0  0  0
    2.5783    0.8116    3.0692 C   0  0  0  0  0  0  0  0  0  0  0  0
    1.1875    0.8248    3.7175 C   0  0  0  0  0  0  0  0  0  0  0  0
    1.9276    2.0243    0.8984 C   0  0  0  0  0  0  0  0  0  0  0  0
    2.1092   -0.5033    0.9116 C   0  0  0  0  0  0  0  0  0  0  0  0
    1.7549    1.7697    5.9994 C   0  0  0  0  0  0  0  0  0  0  0  0
    1.4898    1.3699    7.2848 C   0  0  0  0  0  0  0  0  0  0  0  0
    0.6370   -0.1041    5.9910 C   0  0  0  0  0  0  0  0  0  0  0  0
    1.9306    2.2067    8.4067 C   0  0  0  0  0  0  0  0  0  0  0  0
    2.8148    3.6520    6.7997 C   0  0  0  0  0  0  0  0  0  0  0  0
  1 12  1  0  0  0  0
  2 13  1  0  0  0  0
  3 17  2  0  0  0  0
  4 11  1  0  0  0  0
  4 14  1  0  0  0  0
  4 16  1  0  0  0  0
  5 14  1  0  0  0  0
  5 18  1  0  0  0  0
  6 15  1  0  0  0  0
  6 16  2  0  0  0  0
  7 17  1  0  0  0  0
  7 18  2  0  0  0  0
  8 18  1  0  0  0  0
  9 10  1  0  0  0  0
  9 12  1  0  0  0  0
  9 13  1  0  0  0  0
 10 11  1  0  0  0  0
 14 15  2  0  0  0  0
 15 17  1  0  0  0  0
M  END
