806
 OpenBabel10141417533D

 20 21  0  0  0  0  0  0  0  0999 V2000
    2.0176    1.0932    0.1351 O   0  0  0  0  0  0  0  0  0  0  0  0
    6.3986   -0.4127    0.0159 O   0  0  0  0  0  0  0  0  0  0  0  0
    1.2833   -3.1267   -3.0293 O   0  0  0  0  0  0  0  0  0  0  0  0
    4.2052    0.2940    0.1464 N   0  0  0  0  0  0  0  0  0  0  0  0
    6.0324    1.8225    0.3743 N   0  0  0  0  0  0  0  0  0  0  0  0
    3.1967    3.8391    0.3383 N   0  0  0  0  0  0  0  0  0  0  0  0
    5.3894    4.1709    0.5229 N   0  0  0  0  0  0  0  0  0  0  0  0
    3.7450   -1.0877   -0.0160 C   0  0  0  0  0  0  0  0  0  0  0  0
    3.6636   -1.5386   -1.4844 C   0  0  0  0  0  0  0  0  0  0  0  0
    2.6443   -0.7369   -2.3060 C   0  0  0  0  0  0  0  0  0  0  0  0
    3.7751    2.6031    0.3241 C   0  0  0  0  0  0  0  0  0  0  0  0
    3.2295    1.2983    0.2046 C   0  0  0  0  0  0  0  0  0  0  0  0
    5.1146    2.8413    0.4183 C   0  0  0  0  0  0  0  0  0  0  0  0
    5.5956    0.5117    0.1738 C   0  0  0  0  0  0  0  0  0  0  0  0
    2.5241   -1.1956   -3.7581 C   0  0  0  0  0  0  0  0  0  0  0  0
    4.2107    4.7564    0.4646 C   0  0  0  0  0  0  0  0  0  0  0  0
    7.4567    2.0879    0.4058 C   0  0  0  0  0  0  0  0  0  0  0  0
    1.8001    4.1581    0.1888 C   0  0  0  0  0  0  0  0  0  0  0  0
    2.0239   -2.6226   -3.8735 C   0  0  0  0  0  0  0  0  0  0  0  0
    2.4398   -3.3953   -5.0952 C   0  0  0  0  0  0  0  0  0  0  0  0
  1 12  2  0  0  0  0
  2 14  2  0  0  0  0
  3 19  2  0  0  0  0
  4  8  1  0  0  0  0
  4 12  1  0  0  0  0
  4 14  1  0  0  0  0
  5 13  1  0  0  0  0
  5 14  1  0  0  0  0
  5 17  1  0  0  0  0
  6 11  1  0  0  0  0
  6 16  1  0  0  0  0
  6 18  1  0  0  0  0
  7 13  1  0  0  0  0
  7 16  2  0  0  0  0
  8  9  1  0  0  0  0
  9 10  1  0  0  0  0
 10 15  1  0  0  0  0
 11 12  1  0  0  0  0
 11 13  2  0  0  0  0
 15 19  1  0  0  0  0
 19 20  1  0  0  0  0
M  END
