312
 OpenBabel10141417493D

 16 16  0  0  1  0  0  0  0  0999 V2000
    0.8242   -0.5888   -0.1599 O   0  0  0  0  0  0  0  0  0  0  0  0
    4.0148    1.8751    2.0741 O   0  0  0  0  0  0  0  0  0  0  0  0
    4.1028   -2.4700    2.2018 O   0  0  0  0  0  0  0  0  0  0  0  0
    2.6465   -1.5439    0.7484 N   0  0  0  0  0  0  0  0  0  0  0  0
    4.3734   -0.3005    1.6599 N   0  0  0  0  0  0  0  0  0  0  0  0
    2.7340    0.8697    0.2480 C   0  0  0  0  0  0  0  0  0  0  0  0
    3.5529    0.9352   -1.1208 C   0  0  3  0  0  0  0  0  0  0  0  0
    2.6460    0.9284   -2.3932 C   0  0  0  0  0  0  0  0  0  0  0  0
    1.7459    2.0606    0.4009 C   0  0  0  0  0  0  0  0  0  0  0  0
    1.9686   -0.4545    0.2710 C   0  0  0  0  0  0  0  0  0  0  0  0
    3.7355    0.8794    1.4100 C   0  0  0  0  0  0  0  0  0  0  0  0
    4.5218    2.1325   -1.1695 C   0  0  0  0  0  0  0  0  0  0  0  0
    3.4045    1.0104   -3.7298 C   0  0  0  0  0  0  0  0  0  0  0  0
    0.9209    2.0647    1.6920 C   0  0  0  0  0  0  0  0  0  0  0  0
    3.7470   -1.5017    1.5490 C   0  0  0  0  0  0  0  0  0  0  0  0
    2.4709    0.9809   -4.9342 C   0  0  0  0  0  0  0  0  0  0  0  0
  1 10  2  0  0  0  0
  2 11  2  0  0  0  0
  3 15  2  0  0  0  0
  4 10  1  0  0  0  0
  4 15  1  0  0  0  0
  5 11  1  0  0  0  0
  5 15  1  0  0  0  0
  6  7  1  0  0  0  0
  6  9  1  0  0  0  0
  6 10  1  0  0  0  0
  6 11  1  0  0  0  0
  7  8  1  0  0  0  0
  7 12  1  0  0  0  0
  8 13  1  0  0  0  0
  9 14  1  0  0  0  0
 13 16  1  0  0  0  0
M  END
