1090
 OpenBabel10141417523D

 17 18  0  0  0  0  0  0  0  0999 V2000
    0.2419   -0.1462    0.3704 N   0  3  0  0  0  0  0  0  0  0  0  0
    6.4617   -0.3666    4.8901 N   0  3  0  0  0  0  0  0  0  0  0  0
   -0.3183   -1.4915    0.8852 C   0  0  0  0  0  0  0  0  0  0  0  0
   -1.0285    0.7122    0.0554 C   0  0  0  0  0  0  0  0  0  0  0  0
    7.2822    0.4445    5.9425 C   0  0  0  0  0  0  0  0  0  0  0  0
    7.4536   -0.6132    3.7282 C   0  0  0  0  0  0  0  0  0  0  0  0
    1.0978    0.5808    1.4235 C   0  0  0  0  0  0  0  0  0  0  0  0
    5.2300    0.4509    4.4441 C   0  0  0  0  0  0  0  0  0  0  0  0
   -1.7658   -1.5087    0.4355 C   0  0  0  0  0  0  0  0  0  0  0  0
   -2.1879   -0.0716    0.6375 C   0  0  0  0  0  0  0  0  0  0  0  0
    8.4870    0.9560    5.1827 C   0  0  0  0  0  0  0  0  0  0  0  0
    8.8111   -0.1899    4.2537 C   0  0  0  0  0  0  0  0  0  0  0  0
    2.3230   -0.2242    1.8866 C   0  0  0  0  0  0  0  0  0  0  0  0
    4.3747   -0.2803    3.3935 C   0  0  0  0  0  0  0  0  0  0  0  0
    3.1531    0.5397    2.9396 C   0  0  0  0  0  0  0  0  0  0  0  0
    1.0072   -0.3543   -0.9352 C   0  0  0  0  0  0  0  0  0  0  0  0
    6.0474   -1.6919    5.5273 C   0  0  0  0  0  0  0  0  0  0  0  0
  1  3  1  0  0  0  0
  1  4  1  0  0  0  0
  1  7  1  0  0  0  0
  1 16  1  0  0  0  0
  2  5  1  0  0  0  0
  2  6  1  0  0  0  0
  2  8  1  0  0  0  0
  2 17  1  0  0  0  0
  3  9  1  0  0  0  0
  4 10  1  0  0  0  0
  5 11  1  0  0  0  0
  6 12  1  0  0  0  0
  7 13  1  0  0  0  0
  8 14  1  0  0  0  0
  9 10  1  0  0  0  0
 11 12  1  0  0  0  0
 13 15  1  0  0  0  0
 14 15  1  0  0  0  0
M  CHG  2   1   1   2   1
M  END
