
 OpenBabel10141417483D

 19 21  0  0  1  0  0  0  0  0999 V2000
   -0.7079   -1.8231   -0.3695 C   0  0  1  0  0  0  0  0  0  0  0  0
    0.7978   -1.8136   -0.1261 C   0  0  0  0  0  0  0  0  0  0  0  0
   -1.2151   -0.5445    0.0980 O   0  0  0  0  0  0  0  0  0  0  0  0
   -0.1401    0.1871    0.7338 C   0  0  1  0  0  0  0  0  0  0  0  0
    0.9381   -0.8474    1.0294 C   0  0  1  0  0  0  0  0  0  0  0  0
    0.6778   -1.5353    2.2550 O   0  0  0  0  0  0  0  0  0  0  0  0
    0.3478    1.2842   -0.2208 C   0  0  0  0  0  0  0  0  0  0  0  0
   -0.7117    2.1863   -0.5288 O   0  0  0  0  0  0  0  0  0  0  0  0
   -1.1158   -2.0292   -1.7494 N   0  0  0  0  0  0  0  0  0  0  0  0
   -0.2741   -4.2430   -1.9503 N   0  0  0  0  0  0  0  0  0  0  0  0
   -0.9215   -3.1792   -2.4892 C   0  0  0  0  0  0  0  0  0  0  0  0
   -1.5442   -2.9032   -3.6978 C   0  0  0  0  0  0  0  0  0  0  0  0
   -1.6880   -3.7710   -4.8989 C   0  0  1  0  0  0  0  0  0  0  0  0
   -0.1369   -5.3288   -2.6294 C   0  0  0  0  0  0  0  0  0  0  0  0
   -0.5463   -4.7864   -5.0330 C   0  0  0  0  0  0  0  0  0  0  0  0
   -0.4465   -5.7138   -3.9114 N   0  0  0  0  0  0  0  0  0  0  0  0
   -2.1246   -1.6537   -3.6917 N   0  0  0  0  0  0  0  0  0  0  0  0
   -1.8558   -1.1637   -2.5065 C   0  0  0  0  0  0  0  0  0  0  0  0
   -2.9613   -4.4330   -4.9309 O   0  0  0  0  0  0  0  0  0  0  0  0
  1  2  1  0  0  0  0
  1  3  1  0  0  0  0
  1  9  1  6  0  0  0
  2  5  1  0  0  0  0
  3  4  1  0  0  0  0
  4  5  1  0  0  0  0
  4  7  1  6  0  0  0
  5  6  1  1  0  0  0
  7  8  1  0  0  0  0
 10 14  2  0  0  0  0
 10 11  1  0  0  0  0
 11 12  2  0  0  0  0
 11  9  1  0  0  0  0
 12 13  1  0  0  0  0
 12 17  1  0  0  0  0
 13 15  1  0  0  0  0
 13 19  1  1  0  0  0
 14 16  1  0  0  0  0
 15 16  1  0  0  0  0
 17 18  2  0  0  0  0
 18  9  1  0  0  0  0
M  END
