686
 OpenBabel10141417503D

 35 36  0  0  1  0  0  0  0  0999 V2000
   -1.6141    0.9797   -1.8665 S   0  0  0  0  0  0  0  0  0  0  0  0
    5.3914   -4.2556   -1.7685 S   0  0  0  0  0  0  0  0  0  0  0  0
    0.0651   -3.6626   -3.4207 S   0  0  0  0  0  0  0  0  0  0  0  0
   -0.4954    5.3986   -0.0001 S   0  0  0  0  0  0  0  0  0  0  0  0
    2.1670   -0.3042   -1.6325 O   0  0  0  0  0  0  0  0  0  0  0  0
    3.8930   -0.3821   -3.2670 O   0  0  0  0  0  0  0  0  0  0  0  0
    3.2118    2.9181   -0.1538 O   0  0  0  0  0  0  0  0  0  0  0  0
   -0.1222    1.5300   -2.2177 O   0  0  0  0  0  0  0  0  0  0  0  0
    4.8602   -2.8028   -2.2383 O   0  0  0  0  0  0  0  0  0  0  0  0
    1.2192   -2.7091   -2.7978 O   0  0  0  0  0  0  0  0  0  0  0  0
   -0.3492    3.7952   -0.3115 O   0  0  0  0  0  0  0  0  0  0  0  0
    4.1747   -2.9397   -4.9563 O   0  0  0  0  0  0  0  0  0  0  0  0
    2.2667    4.7666    0.5732 O   0  0  0  0  0  0  0  0  0  0  0  0
   -2.2577    0.6983   -3.3146 O   0  0  0  0  0  0  0  0  0  0  0  0
    6.9369   -4.2367   -2.2216 O   0  0  0  0  0  0  0  0  0  0  0  0
   -1.2848   -3.0651   -2.7906 O   0  0  0  0  0  0  0  0  0  0  0  0
   -2.0617    5.5290    0.3319 O   0  0  0  0  0  0  0  0  0  0  0  0
   -2.3811    2.0339   -1.2486 O   0  0  0  0  0  0  0  0  0  0  0  0
   -1.5020   -0.3225   -1.2489 O   0  0  0  0  0  0  0  0  0  0  0  0
    5.3437   -4.3059   -0.3292 O   0  0  0  0  0  0  0  0  0  0  0  0
    4.7580   -5.2539   -2.6011 O   0  0  0  0  0  0  0  0  0  0  0  0
   -0.0328   -3.4093   -4.8304 O   0  0  0  0  0  0  0  0  0  0  0  0
    0.2401   -5.0056   -2.8965 O   0  0  0  0  0  0  0  0  0  0  0  0
    0.1060    5.6797    1.2967 O   0  0  0  0  0  0  0  0  0  0  0  0
   -0.2162    6.1552   -1.1945 O   0  0  0  0  0  0  0  0  0  0  0  0
    2.1956    1.1446   -1.4952 C   0  0  1  0  0  0  0  0  0  0  0  0
    0.7884    1.7456   -1.1302 C   0  0  1  0  0  0  0  0  0  0  0  0
    3.4877   -2.4321   -2.0123 C   0  0  1  0  0  0  0  0  0  0  0  0
    3.4431   -0.8794   -2.0074 C   0  0  2  0  0  0  0  0  0  0  0  0
    2.5787   -2.9805   -3.1249 C   0  0  2  0  0  0  0  0  0  0  0  0
    0.8990    3.2780   -0.8000 C   0  0  2  0  0  0  0  0  0  0  0  0
    2.9581   -2.3537   -4.4753 C   0  0  1  0  0  0  0  0  0  0  0  0
    3.1854    1.5364   -0.3933 C   0  0  0  0  0  0  0  0  0  0  0  0
    1.9810    3.4228    0.2859 C   0  0  1  0  0  0  0  0  0  0  0  0
    3.0984   -0.8264   -4.3677 C   0  0  0  0  0  0  0  0  0  0  0  0
  1  8  1  0  0  0  0
  1 14  1  0  0  0  0
  1 18  2  0  0  0  0
  1 19  2  0  0  0  0
  2  9  1  0  0  0  0
  2 15  1  0  0  0  0
  2 20  2  0  0  0  0
  2 21  2  0  0  0  0
  3 10  1  0  0  0  0
  3 16  1  0  0  0  0
  3 22  2  0  0  0  0
  3 23  2  0  0  0  0
  4 11  1  0  0  0  0
  4 17  1  0  0  0  0
  4 24  2  0  0  0  0
  4 25  2  0  0  0  0
  6 29  1  0  0  0  0
  6 35  1  0  0  0  0
  7 33  1  0  0  0  0
  7 34  1  0  0  0  0
 26  5  1  1  0  0  0
 26 27  1  0  0  0  0
 26 33  1  0  0  0  0
 27 31  1  0  0  0  0
 27  8  1  6  0  0  0
 28 29  1  0  0  0  0
 28 30  1  0  0  0  0
 28  9  1  6  0  0  0
 29  5  1  6  0  0  0
 30 10  1  1  0  0  0
 30 32  1  0  0  0  0
 31 11  1  1  0  0  0
 31 34  1  0  0  0  0
 32 35  1  0  0  0  0
 32 12  1  1  0  0  0
 34 13  1  6  0  0  0
M  END
