183
 OpenBabel10141417503D

 54 56  0  0  1  0  0  0  0  0999 V2000
   -0.2336   -5.2520    3.9090 S   0  0  0  0  0  0  0  0  0  0  0  0
   -2.8993   -0.9736    0.6055 O   0  0  0  0  0  0  0  0  0  0  0  0
    0.3005    0.3074    4.0361 O   0  0  0  0  0  0  0  0  0  0  0  0
    1.3124   -1.7543    6.8296 O   0  0  0  0  0  0  0  0  0  0  0  0
    0.9662    0.6313   -1.7784 O   0  0  0  0  0  0  0  0  0  0  0  0
   -1.6691    0.8385    9.8495 O   0  0  0  0  0  0  0  0  0  0  0  0
    4.4639    2.0188    8.7298 O   0  0  0  0  0  0  0  0  0  0  0  0
    0.3237   -0.1348    9.6569 O   0  0  0  0  0  0  0  0  0  0  0  0
    1.3696    1.3570   -6.9537 O   0  0  0  0  0  0  0  0  0  0  0  0
    0.7205   -0.5385   -8.2152 O   0  0  0  0  0  0  0  0  0  0  0  0
   -1.0201   -0.4604    1.8164 N   0  0  0  0  0  0  0  0  0  0  0  0
   -1.2479    0.0905   -1.5840 N   0  0  0  0  0  0  0  0  0  0  0  0
   -1.1040   -0.7805    5.4747 N   0  0  0  0  0  0  0  0  0  0  0  0
   -3.4115    3.2210    2.8974 N   0  0  0  0  0  0  0  0  0  0  0  0
    1.7792    0.4901    7.0866 N   0  0  0  0  0  0  0  0  0  0  0  0
    0.5496   -0.4985   -5.9599 N   0  0  0  0  0  0  0  0  0  0  0  0
    3.0957    0.5228    9.6630 N   0  0  0  0  0  0  0  0  0  0  0  0
   -1.4458    0.7798   -0.2904 C   0  0  1  0  0  0  0  0  0  0  0  0
   -2.4858    1.9168   -0.4345 C   0  0  0  0  0  0  0  0  0  0  0  0
   -1.2709   -1.2703    3.0279 C   0  0  1  0  0  0  0  0  0  0  0  0
   -2.7448    2.7050    0.8260 C   0  0  0  0  0  0  0  0  0  0  0  0
   -1.8808   -0.2971    0.7495 C   0  0  0  0  0  0  0  0  0  0  0  0
   -0.6685   -2.6845    2.8965 C   0  0  0  0  0  0  0  0  0  0  0  0
   -2.4770    4.0987    1.0752 C   0  0  0  0  0  0  0  0  0  0  0  0
   -0.6214   -0.4913    4.2106 C   0  0  0  0  0  0  0  0  0  0  0  0
   -0.5320   -0.1499    6.6756 C   0  0  1  0  0  0  0  0  0  0  0  0
   -2.9074    4.3853    2.3737 C   0  0  0  0  0  0  0  0  0  0  0  0
   -3.3601    2.2218    1.9667 C   0  0  0  0  0  0  0  0  0  0  0  0
   -0.8451   -3.5530    4.1506 C   0  0  0  0  0  0  0  0  0  0  0  0
   -1.3450   -0.5108    7.9192 C   0  0  0  0  0  0  0  0  0  0  0  0
   -1.9198    5.1548    0.3215 C   0  0  0  0  0  0  0  0  0  0  0  0
    0.9519   -0.5833    6.8618 C   0  0  0  0  0  0  0  0  0  0  0  0
    3.2521    0.5018    7.2003 C   0  0  1  0  0  0  0  0  0  0  0  0
   -0.0264    0.0590   -2.2211 C   0  0  0  0  0  0  0  0  0  0  0  0
   -2.8078    5.6570    2.9545 C   0  0  0  0  0  0  0  0  0  0  0  0
    0.0143   -0.7122   -3.5260 C   0  0  0  0  0  0  0  0  0  0  0  0
    3.9358    1.2808    6.0412 C   0  0  0  0  0  0  0  0  0  0  0  0
   -1.8150    6.4353    0.8863 C   0  0  0  0  0  0  0  0  0  0  0  0
   -2.2535    6.6806    2.1845 C   0  0  0  0  0  0  0  0  0  0  0  0
    0.4945    0.1966   -4.6409 C   0  0  0  0  0  0  0  0  0  0  0  0
    3.5439    2.7419    5.8297 C   0  0  0  0  0  0  0  0  0  0  0  0
   -0.7843    0.0660    9.1930 C   0  0  0  0  0  0  0  0  0  0  0  0
    3.6609    1.1021    8.5683 C   0  0  0  0  0  0  0  0  0  0  0  0
    4.1191    3.4804    4.7841 C   0  0  0  0  0  0  0  0  0  0  0  0
    2.6491    3.4185    6.6751 C   0  0  0  0  0  0  0  0  0  0  0  0
   -0.6484   -5.9335    5.5414 C   0  0  0  0  0  0  0  0  0  0  0  0
    3.7750    4.8281    4.5950 C   0  0  0  0  0  0  0  0  0  0  0  0
    2.2688    4.7368    6.4619 C   0  0  0  0  0  0  0  0  0  0  0  0
    3.4892    1.4621   -8.2658 C   0  0  0  0  0  0  0  0  0  0  0  0
    0.8232    0.0726   -7.1527 C   0  0  0  0  0  0  0  0  0  0  0  0
    2.8392    5.4493    5.4237 C   0  0  0  0  0  0  0  0  0  0  0  0
    2.0207    1.9270   -8.1123 C   0  0  0  0  0  0  0  0  0  0  0  0
    3.6380   -0.0466   -8.4737 C   0  0  0  0  0  0  0  0  0  0  0  0
    4.1669    2.1862   -9.4308 C   0  0  0  0  0  0  0  0  0  0  0  0
  1 29  1  0  0  0  0
  1 46  1  0  0  0  0
  2 22  2  0  0  0  0
  3 25  2  0  0  0  0
  4 32  2  0  0  0  0
  5 34  2  0  0  0  0
  6 42  1  0  0  0  0
  7 43  2  0  0  0  0
  8 42  2  0  0  0  0
  9 50  1  0  0  0  0
  9 52  1  0  0  0  0
 10 50  2  0  0  0  0
 11 22  1  0  0  0  0
 12 34  1  0  0  0  0
 13 25  1  0  0  0  0
 14 27  1  0  0  0  0
 14 28  1  0  0  0  0
 15 32  1  0  0  0  0
 16 40  1  0  0  0  0
 16 50  1  0  0  0  0
 17 43  1  0  0  0  0
 18 12  1  6  0  0  0
 18 19  1  0  0  0  0
 18 22  1  0  0  0  0
 19 21  1  0  0  0  0
 20 25  1  1  0  0  0
 20 23  1  0  0  0  0
 20 11  1  0  0  0  0
 21 24  1  0  0  0  0
 21 28  2  0  0  0  0
 23 29  1  0  0  0  0
 24 27  1  0  0  0  0
 24 31  2  0  0  0  0
 26 13  1  6  0  0  0
 26 30  1  0  0  0  0
 26 32  1  0  0  0  0
 27 35  2  0  0  0  0
 30 42  1  0  0  0  0
 31 38  1  0  0  0  0
 33 15  1  6  0  0  0
 33 37  1  0  0  0  0
 33 43  1  0  0  0  0
 34 36  1  0  0  0  0
 35 39  1  0  0  0  0
 36 40  1  0  0  0  0
 37 41  1  0  0  0  0
 38 39  2  0  0  0  0
 41 44  2  0  0  0  0
 41 45  1  0  0  0  0
 44 47  1  0  0  0  0
 45 48  2  0  0  0  0
 47 51  2  0  0  0  0
 48 51  1  0  0  0  0
 49 52  1  0  0  0  0
 49 53  1  0  0  0  0
 49 54  1  0  0  0  0
M  END
