1186
 OpenBabel10141417503D

 22 25  0  0  1  0  0  0  0  0999 V2000
   -0.2180   -0.2373    1.1170 S   0  0  0  0  0  0  0  0  0  0  0  0
    1.1552   -2.4018   -2.7650 N   0  0  0  0  0  0  0  0  0  0  0  0
    5.5714   -4.3244   -5.1613 N   0  0  0  0  0  0  0  0  0  0  0  0
    3.2244   -0.8836   -3.0717 C   0  0  2  0  0  0  0  0  0  0  0  0
    2.0120   -1.6607   -3.7342 C   0  0  1  0  0  0  0  0  0  0  0  0
    2.7887   -0.1204   -1.7997 C   0  0  0  0  0  0  0  0  0  0  0  0
    1.6910   -0.7712   -0.9253 C   0  0  2  0  0  0  0  0  0  0  0  0
    0.6131   -1.4438   -1.7899 C   0  0  0  0  0  0  0  0  0  0  0  0
    2.3691   -2.4954   -5.0178 C   0  0  0  0  0  0  0  0  0  0  0  0
    4.5013   -1.7063   -3.0065 C   0  0  0  0  0  0  0  0  0  0  0  0
    3.7069   -3.1407   -4.9336 C   0  0  0  0  0  0  0  0  0  0  0  0
    4.6425   -2.7188   -3.9679 C   0  0  0  0  0  0  0  0  0  0  0  0
    1.8248   -3.5654   -2.1505 C   0  0  0  0  0  0  0  0  0  0  0  0
    1.0999    0.3255   -0.0090 C   0  0  0  0  0  0  0  0  0  0  0  0
    5.8053   -3.4571   -4.1181 C   0  0  0  0  0  0  0  0  0  0  0  0
    5.6251   -1.4637   -2.2035 C   0  0  0  0  0  0  0  0  0  0  0  0
    4.3057   -4.1400   -5.6701 C   0  0  0  0  0  0  0  0  0  0  0  0
    0.9481   -4.3632   -1.1709 C   0  0  0  0  0  0  0  0  0  0  0  0
    6.9173   -3.2346   -3.3108 C   0  0  0  0  0  0  0  0  0  0  0  0
    6.8005   -2.2194   -2.3497 C   0  0  0  0  0  0  0  0  0  0  0  0
    1.7092   -5.5481   -0.5918 C   0  0  0  0  0  0  0  0  0  0  0  0
   -0.5849    1.3480    1.9125 C   0  0  0  0  0  0  0  0  0  0  0  0
  1 14  1  0  0  0  0
  1 22  1  0  0  0  0
  2  8  1  0  0  0  0
  2 13  1  0  0  0  0
  3 15  1  0  0  0  0
  3 17  1  0  0  0  0
  4  5  1  0  0  0  0
  4  6  1  6  0  0  0
  4 10  1  0  0  0  0
  5  2  1  1  0  0  0
  5  9  1  0  0  0  0
  6  7  1  0  0  0  0
  7  8  1  0  0  0  0
  7 14  1  6  0  0  0
  9 11  1  0  0  0  0
 10 12  2  0  0  0  0
 10 16  1  0  0  0  0
 11 12  1  0  0  0  0
 11 17  2  0  0  0  0
 12 15  1  0  0  0  0
 13 18  1  0  0  0  0
 15 19  2  0  0  0  0
 16 20  2  0  0  0  0
 18 21  1  0  0  0  0
 19 20  1  0  0  0  0
M  END
