1074
 OpenBabel10141417523D

 20 22  0  0  1  0  0  0  0  0999 V2000
   -1.9809   -0.8790    3.8070 N   0  0  0  0  0  0  0  0  0  0  0  0
    0.6537    0.9683    3.2310 C   0  0  0  0  0  0  0  0  0  0  0  0
    0.0522    2.4461    3.2052 C   0  0  0  0  0  0  0  0  0  0  0  0
    1.0325    0.4711    4.6906 C   0  0  0  0  0  0  0  0  0  0  0  0
   -0.0888   -0.0702    2.3105 C   0  0  0  0  0  0  0  0  0  0  0  0
   -1.2284    2.7261    4.0310 C   0  0  0  0  0  0  0  0  0  0  0  0
    0.0795    3.1326    1.8181 C   0  0  0  0  0  0  0  0  0  0  0  0
    2.0996    1.3467    5.4106 C   0  0  0  0  0  0  0  0  0  0  0  0
    1.5295   -0.9875    4.8020 C   0  0  0  0  0  0  0  0  0  0  0  0
   -1.5946   -0.3457    2.4999 C   0  0  3  0  0  0  0  0  0  0  0  0
   -2.5205    3.0401    3.2730 C   0  0  0  0  0  0  0  0  0  0  0  0
   -1.2625    3.4220    1.1539 C   0  0  0  0  0  0  0  0  0  0  0  0
    3.5251    1.1495    4.8821 C   0  0  0  0  0  0  0  0  0  0  0  0
    2.9497   -1.2303    4.2986 C   0  0  0  0  0  0  0  0  0  0  0  0
   -2.2922    3.9912    2.1163 C   0  0  0  0  0  0  0  0  0  0  0  0
    3.9611   -0.3084    4.9633 C   0  0  0  0  0  0  0  0  0  0  0  0
   -2.2385   -1.1265    1.3298 C   0  0  0  0  0  0  0  0  0  0  0  0
   -2.1463   -2.6402    1.4616 C   0  0  0  0  0  0  0  0  0  0  0  0
   -1.8666   -2.3318    3.9185 C   0  0  0  0  0  0  0  0  0  0  0  0
   -2.6330   -3.0767    2.8345 C   0  0  0  0  0  0  0  0  0  0  0  0
  1 10  1  0  0  0  0
  1 19  1  0  0  0  0
  2  3  1  0  0  0  0
  2  4  1  0  0  0  0
  2  5  1  0  0  0  0
  3  6  1  0  0  0  0
  3  7  1  0  0  0  0
  4  8  1  0  0  0  0
  4  9  1  0  0  0  0
  5 10  1  0  0  0  0
  6 11  1  0  0  0  0
  7 12  1  0  0  0  0
  8 13  1  0  0  0  0
  9 14  1  0  0  0  0
 10 17  1  0  0  0  0
 11 15  1  0  0  0  0
 12 15  1  0  0  0  0
 13 16  1  0  0  0  0
 14 16  1  0  0  0  0
 17 18  1  0  0  0  0
 18 20  1  0  0  0  0
 19 20  1  0  0  0  0
M  END
