
 OpenBabel10141417543D

 26 28  0  0  1  0  0  0  0  0999 V2000
   10.3033    0.5507    7.1878 Cl  0  0  0  0  0  0  0  0  0  0  0  0
    7.3708    0.2579    7.0202 Cl  0  0  0  0  0  0  0  0  0  0  0  0
    7.6890    2.3764    0.5157 O   0  0  0  0  0  0  0  0  0  0  0  0
    6.0154    2.5285    2.0829 O   0  0  0  0  0  0  0  0  0  0  0  0
   10.3176    6.6932    0.6867 O   0  0  0  0  0  0  0  0  0  0  0  0
    7.3896   -0.0635    3.2095 C   0  0  0  0  0  0  0  0  0  0  0  0
    7.7726    1.1539    4.0380 C   0  0  3  0  0  0  0  0  0  0  0  0
    7.9458    1.1925    2.5335 C   0  0  3  0  0  0  0  0  0  0  0  0
    8.2733   -1.2912    3.1683 C   0  0  0  0  0  0  0  0  0  0  0  0
    5.9209   -0.4125    3.2095 C   0  0  0  0  0  0  0  0  0  0  0  0
    8.9148    1.0416    4.9572 C   0  0  0  0  0  0  0  0  0  0  0  0
    7.1030    2.0983    1.7020 C   0  0  0  0  0  0  0  0  0  0  0  0
    8.8613    0.6636    6.2449 C   0  0  0  0  0  0  0  0  0  0  0  0
    6.9512    3.2109   -0.4016 C   0  0  0  0  0  0  0  0  0  0  0  0
    7.7259    4.4594   -0.7579 C   0  0  0  0  0  0  0  0  0  0  0  0
    8.5712    5.0638    0.1783 C   0  0  0  0  0  0  0  0  0  0  0  0
    7.5957    5.0571   -2.0200 C   0  0  0  0  0  0  0  0  0  0  0  0
    9.3863    6.1449   -0.1729 C   0  0  0  0  0  0  0  0  0  0  0  0
    8.3438    6.1927   -2.3511 C   0  0  0  0  0  0  0  0  0  0  0  0
    9.2517    6.7273   -1.4336 C   0  0  0  0  0  0  0  0  0  0  0  0
   10.9141    5.8717    1.6246 C   0  0  0  0  0  0  0  0  0  0  0  0
   11.3219    4.5598    1.3512 C   0  0  0  0  0  0  0  0  0  0  0  0
   11.1448    6.4145    2.8894 C   0  0  0  0  0  0  0  0  0  0  0  0
   11.8809    3.7717    2.3581 C   0  0  0  0  0  0  0  0  0  0  0  0
   11.7440    5.6372    3.8850 C   0  0  0  0  0  0  0  0  0  0  0  0
   12.0979    4.3127    3.6235 C   0  0  0  0  0  0  0  0  0  0  0  0
  1 13  1  0  0  0  0
  2 13  1  0  0  0  0
  3 12  1  0  0  0  0
  3 14  1  0  0  0  0
  4 12  2  0  0  0  0
  5 18  1  0  0  0  0
  5 21  1  0  0  0  0
  6  7  1  0  0  0  0
  6  8  1  0  0  0  0
  6  9  1  0  0  0  0
  6 10  1  0  0  0  0
  7  8  1  0  0  0  0
  7 11  1  0  0  0  0
  8 12  1  0  0  0  0
 11 13  2  0  0  0  0
 14 15  1  0  0  0  0
 15 16  2  0  0  0  0
 15 17  1  0  0  0  0
 16 18  1  0  0  0  0
 17 19  2  0  0  0  0
 18 20  2  0  0  0  0
 19 20  1  0  0  0  0
 21 22  2  0  0  0  0
 21 23  1  0  0  0  0
 22 24  1  0  0  0  0
 23 25  2  0  0  0  0
 24 26  2  0  0  0  0
 25 26  1  0  0  0  0
M  END
