850
 OpenBabel10141417493D

 27 30  0  0  0  0  0  0  0  0999 V2000
    4.6476   -2.2121   -5.0005 Cl  0  0  0  0  0  0  0  0  0  0  0  0
    8.0282   -0.1979   -0.1361 S   0  0  0  0  0  0  0  0  0  0  0  0
    0.9422   -8.2968   -6.0181 O   0  0  0  0  0  0  0  0  0  0  0  0
    3.0784   -5.8685   -1.0360 N   0  0  0  0  0  0  0  0  0  0  0  0
    3.0244   -8.3206   -2.8725 N   0  0  0  0  0  0  0  0  0  0  0  0
    5.7223   -2.3737    0.0803 N   0  0  0  0  0  0  0  0  0  0  0  0
    2.1046   -6.9847   -0.9059 C   0  0  0  0  0  0  0  0  0  0  0  0
    3.5298   -5.8390   -2.4436 C   0  0  0  0  0  0  0  0  0  0  0  0
    2.6095   -8.3498   -1.4506 C   0  0  0  0  0  0  0  0  0  0  0  0
    3.9572   -7.1933   -3.0619 C   0  0  0  0  0  0  0  0  0  0  0  0
    4.1790   -5.9796   -0.0604 C   0  0  0  0  0  0  0  0  0  0  0  0
    5.2182   -4.8322   -0.0717 C   0  0  0  0  0  0  0  0  0  0  0  0
    1.8479   -8.2925   -3.7655 C   0  0  0  0  0  0  0  0  0  0  0  0
    4.6486   -3.4232    0.1724 C   0  0  0  0  0  0  0  0  0  0  0  0
    2.1590   -8.2957   -5.2729 C   0  0  0  0  0  0  0  0  0  0  0  0
    5.9883   -1.8162   -1.2122 C   0  0  0  0  0  0  0  0  0  0  0  0
    6.4093   -2.0167    1.2840 C   0  0  0  0  0  0  0  0  0  0  0  0
    7.0061   -0.8523   -1.4199 C   0  0  0  0  0  0  0  0  0  0  0  0
    7.4281   -1.0314    1.3026 C   0  0  0  0  0  0  0  0  0  0  0  0
    5.2657   -2.1803   -2.3680 C   0  0  0  0  0  0  0  0  0  0  0  0
    6.1207   -2.5985    2.5365 C   0  0  0  0  0  0  0  0  0  0  0  0
    7.2838   -0.3347   -2.7028 C   0  0  0  0  0  0  0  0  0  0  0  0
    8.0590   -0.6410    2.5021 C   0  0  0  0  0  0  0  0  0  0  0  0
    5.5511   -1.6715   -3.6386 C   0  0  0  0  0  0  0  0  0  0  0  0
    6.7417   -2.2013    3.7299 C   0  0  0  0  0  0  0  0  0  0  0  0
    6.5681   -0.7442   -3.8163 C   0  0  0  0  0  0  0  0  0  0  0  0
    7.7117   -1.2079    3.7156 C   0  0  0  0  0  0  0  0  0  0  0  0
  1 24  1  0  0  0  0
  2 18  1  0  0  0  0
  2 19  1  0  0  0  0
  3 15  1  0  0  0  0
  4  7  1  0  0  0  0
  4  8  1  0  0  0  0
  4 11  1  0  0  0  0
  5  9  1  0  0  0  0
  5 10  1  0  0  0  0
  5 13  1  0  0  0  0
  6 14  1  0  0  0  0
  6 16  1  0  0  0  0
  6 17  1  0  0  0  0
  7  9  1  0  0  0  0
  8 10  1  0  0  0  0
 11 12  1  0  0  0  0
 12 14  1  0  0  0  0
 13 15  1  0  0  0  0
 16 18  2  0  0  0  0
 16 20  1  0  0  0  0
 17 19  1  0  0  0  0
 17 21  2  0  0  0  0
 18 22  1  0  0  0  0
 19 23  2  0  0  0  0
 20 24  2  0  0  0  0
 21 25  1  0  0  0  0
 22 26  2  0  0  0  0
 23 27  1  0  0  0  0
 24 26  1  0  0  0  0
 25 27  2  0  0  0  0
M  END
