925
 OpenBabel10141417513D

 21 22  0  0  1  0  0  0  0  0999 V2000
    6.6545   -2.9421   -0.4336 Cl  0  0  0  0  0  0  0  0  0  0  0  0
    4.6843    3.6213    2.9402 O   0  0  0  0  0  0  0  0  0  0  0  0
    5.7180   -0.0144    2.3450 N   0  0  0  0  0  0  0  0  0  0  0  0
    5.5630    1.4660    2.1072 C   0  0  3  0  0  0  0  0  0  0  0  0
    6.7048   -0.3804    3.3914 C   0  0  0  0  0  0  0  0  0  0  0  0
    6.0865   -0.7147    1.0703 C   0  0  0  0  0  0  0  0  0  0  0  0
    4.8874    2.2427    3.2805 C   0  0  0  0  0  0  0  0  0  0  0  0
    6.8490    2.1824    1.6564 C   0  0  0  0  0  0  0  0  0  0  0  0
    6.4496    0.1086    4.7969 C   0  0  0  0  0  0  0  0  0  0  0  0
    6.2248   -2.2498    1.1549 C   0  0  0  0  0  0  0  0  0  0  0  0
    5.2866   -0.2086    5.5012 C   0  0  0  0  0  0  0  0  0  0  0  0
    7.4709    0.8475    5.4439 C   0  0  0  0  0  0  0  0  0  0  0  0
    3.7976    4.2977    3.7363 C   0  0  0  0  0  0  0  0  0  0  0  0
    5.1307    0.2062    6.8248 C   0  0  0  0  0  0  0  0  0  0  0  0
    7.3173    1.2446    6.7704 C   0  0  0  0  0  0  0  0  0  0  0  0
    6.1601    0.9180    7.4602 C   0  0  0  0  0  0  0  0  0  0  0  0
    3.2513    5.4380    3.1441 C   0  0  0  0  0  0  0  0  0  0  0  0
    3.3954    3.9324    5.0225 C   0  0  0  0  0  0  0  0  0  0  0  0
    2.2410    6.1512    3.7863 C   0  0  0  0  0  0  0  0  0  0  0  0
    2.3813    4.6489    5.6683 C   0  0  0  0  0  0  0  0  0  0  0  0
    1.7898    5.7452    5.0392 C   0  0  0  0  0  0  0  0  0  0  0  0
  1 10  1  0  0  0  0
  2  7  1  0  0  0  0
  2 13  1  0  0  0  0
  3  4  1  0  0  0  0
  3  5  1  0  0  0  0
  3  6  1  0  0  0  0
  4  7  1  0  0  0  0
  4  8  1  0  0  0  0
  5  9  1  0  0  0  0
  6 10  1  0  0  0  0
  9 11  2  0  0  0  0
  9 12  1  0  0  0  0
 11 14  1  0  0  0  0
 12 15  2  0  0  0  0
 13 17  2  0  0  0  0
 13 18  1  0  0  0  0
 14 16  2  0  0  0  0
 15 16  1  0  0  0  0
 17 19  1  0  0  0  0
 18 20  2  0  0  0  0
 19 21  2  0  0  0  0
 20 21  1  0  0  0  0
M  END
