812
 OpenBabel10141417483D

 23 25  0  0  0  0  0  0  0  0999 V2000
    1.4834   -1.3761    0.2077 O   0  0  0  0  0  0  0  0  0  0  0  0
    5.5028    0.4832    1.7441 O   0  0  0  0  0  0  0  0  0  0  0  0
    3.5062   -2.3085    1.0386 N   0  0  0  0  0  0  0  0  0  0  0  0
    4.6922   -1.7389    1.5804 N   0  0  0  0  0  0  0  0  0  0  0  0
    3.4248   -0.0142    0.6172 C   0  0  0  0  0  0  0  0  0  0  0  0
    3.6921    0.3863   -0.8376 C   0  0  0  0  0  0  0  0  0  0  0  0
    2.6344   -1.2967    0.6213 C   0  0  0  0  0  0  0  0  0  0  0  0
    4.6930   -0.3521    1.3584 C   0  0  0  0  0  0  0  0  0  0  0  0
    4.4893    1.6798   -1.0258 C   0  0  0  0  0  0  0  0  0  0  0  0
    3.8106    2.9079   -0.4208 C   0  0  0  0  0  0  0  0  0  0  0  0
    3.4601   -3.6392    0.5065 C   0  0  0  0  0  0  0  0  0  0  0  0
    5.2936   -2.2352    2.7797 C   0  0  0  0  0  0  0  0  0  0  0  0
    4.6382    4.1653   -0.6398 C   0  0  0  0  0  0  0  0  0  0  0  0
    2.2777   -4.1773   -0.0265 C   0  0  0  0  0  0  0  0  0  0  0  0
    6.6325   -1.9369    3.0757 C   0  0  0  0  0  0  0  0  0  0  0  0
    4.6068   -4.4495    0.4759 C   0  0  0  0  0  0  0  0  0  0  0  0
    4.5719   -3.0340    3.6772 C   0  0  0  0  0  0  0  0  0  0  0  0
    2.2334   -5.4788   -0.5406 C   0  0  0  0  0  0  0  0  0  0  0  0
    7.2416   -2.4487    4.2271 C   0  0  0  0  0  0  0  0  0  0  0  0
    4.5587   -5.7607   -0.0143 C   0  0  0  0  0  0  0  0  0  0  0  0
    5.1754   -3.5258    4.8393 C   0  0  0  0  0  0  0  0  0  0  0  0
    3.3698   -6.2775   -0.5172 C   0  0  0  0  0  0  0  0  0  0  0  0
    6.5125   -3.2433    5.1082 C   0  0  0  0  0  0  0  0  0  0  0  0
  1  7  2  0  0  0  0
  2  8  2  0  0  0  0
  3  4  1  0  0  0  0
  3  7  1  0  0  0  0
  3 11  1  0  0  0  0
  4  8  1  0  0  0  0
  4 12  1  0  0  0  0
  5  6  1  0  0  0  0
  5  7  1  0  0  0  0
  5  8  1  0  0  0  0
  6  9  1  0  0  0  0
  9 10  1  0  0  0  0
 10 13  1  0  0  0  0
 11 14  2  0  0  0  0
 11 16  1  0  0  0  0
 12 15  2  0  0  0  0
 12 17  1  0  0  0  0
 14 18  1  0  0  0  0
 15 19  1  0  0  0  0
 16 20  2  0  0  0  0
 17 21  2  0  0  0  0
 18 22  2  0  0  0  0
 19 23  2  0  0  0  0
 20 22  1  0  0  0  0
 21 23  1  0  0  0  0
M  END
