1620
 OpenBabel10141417493D

 18 19  0  0  1  0  0  0  0  0999 V2000
    3.2211   -0.0114    1.7743 N   0  0  0  0  0  0  0  0  0  0  0  0
    1.2344    1.4974    5.2851 N   0  0  0  0  0  0  0  0  0  0  0  0
    0.4201    2.3737    3.1162 C   0  0  3  0  0  0  0  0  0  0  0  0
    1.0730    1.1355    2.4501 C   0  0  0  0  0  0  0  0  0  0  0  0
    2.6122    1.1112    2.5235 C   0  0  0  0  0  0  0  0  0  0  0  0
   -1.0999    2.3004    2.9392 C   0  0  0  0  0  0  0  0  0  0  0  0
    0.8375    2.5841    4.5730 C   0  0  0  0  0  0  0  0  0  0  0  0
   -1.8791    1.3799    3.6599 C   0  0  0  0  0  0  0  0  0  0  0  0
   -1.7418    3.1305    2.0059 C   0  0  0  0  0  0  0  0  0  0  0  0
    0.8300    3.8631    5.1324 C   0  0  0  0  0  0  0  0  0  0  0  0
    4.6803    0.0360    1.9144 C   0  0  0  0  0  0  0  0  0  0  0  0
    2.7308   -1.3104    2.2458 C   0  0  0  0  0  0  0  0  0  0  0  0
   -3.2654    1.3190    3.4808 C   0  0  0  0  0  0  0  0  0  0  0  0
   -3.1271    3.0632    1.8236 C   0  0  0  0  0  0  0  0  0  0  0  0
    1.2737    4.0324    6.4430 C   0  0  0  0  0  0  0  0  0  0  0  0
   -3.8875    2.1658    2.5691 C   0  0  0  0  0  0  0  0  0  0  0  0
    1.6760    1.6935    6.5448 C   0  0  0  0  0  0  0  0  0  0  0  0
    1.7137    2.9289    7.1637 C   0  0  0  0  0  0  0  0  0  0  0  0
  1  5  1  0  0  0  0
  1 11  1  0  0  0  0
  1 12  1  0  0  0  0
  2  7  1  0  0  0  0
  2 17  2  0  0  0  0
  3  4  1  0  0  0  0
  3  6  1  0  0  0  0
  3  7  1  0  0  0  0
  4  5  1  0  0  0  0
  6  8  2  0  0  0  0
  6  9  1  0  0  0  0
  7 10  2  0  0  0  0
  8 13  1  0  0  0  0
  9 14  2  0  0  0  0
 10 15  1  0  0  0  0
 13 16  2  0  0  0  0
 14 16  1  0  0  0  0
 15 18  2  0  0  0  0
 17 18  1  0  0  0  0
M  END
