388
 OpenBabel10141417503D

 12 12  0  0  1  0  0  0  0  0999 V2000
    1.1815    0.2810    0.6542 O   0  0  0  0  0  0  0  0  0  0  0  0
    0.9199    5.1068   -0.7908 O   0  0  0  0  0  0  0  0  0  0  0  0
    2.7325   -1.7018   -0.9008 N   0  0  0  0  0  0  0  0  0  0  0  0
    2.5255    0.5546    0.2439 C   0  0  1  0  0  0  0  0  0  0  0  0
    2.8454   -0.2342   -1.0531 C   0  0  0  0  0  0  0  0  0  0  0  0
    2.7421    2.0339    0.0758 C   0  0  0  0  0  0  0  0  0  0  0  0
    1.6919    2.8908   -0.2985 C   0  0  0  0  0  0  0  0  0  0  0  0
    4.0180    2.5858    0.2883 C   0  0  0  0  0  0  0  0  0  0  0  0
    1.9215    4.2508   -0.4332 C   0  0  0  0  0  0  0  0  0  0  0  0
    4.2377    3.9547    0.1469 C   0  0  0  0  0  0  0  0  0  0  0  0
    3.1840    4.7964   -0.2155 C   0  0  0  0  0  0  0  0  0  0  0  0
    3.7063   -2.2304    0.0488 C   0  0  0  0  0  0  0  0  0  0  0  0
  2  9  1  0  0  0  0
  3  5  1  0  0  0  0
  3 12  1  0  0  0  0
  4  1  1  6  0  0  0
  4  5  1  0  0  0  0
  4  6  1  0  0  0  0
  6  7  2  0  0  0  0
  6  8  1  0  0  0  0
  7  9  1  0  0  0  0
  8 10  2  0  0  0  0
  9 11  2  0  0  0  0
 10 11  1  0  0  0  0
M  END
