498
 OpenBabel10141417483D

 17 19  0  0  0  0  0  0  0  0999 V2000
    1.5285    0.0893    0.1665 O   0  0  0  0  0  0  0  0  0  0  0  0
    6.1086   -1.1713    0.0860 O   0  0  0  0  0  0  0  0  0  0  0  0
    3.6437   -1.1825    0.2075 C   0  0  0  0  0  0  0  0  0  0  0  0
    2.7464    0.0475    0.1572 C   0  0  0  0  0  0  0  0  0  0  0  0
    5.0400   -0.5863    0.1040 C   0  0  0  0  0  0  0  0  0  0  0  0
    3.5882    1.2381    0.0530 C   0  0  0  0  0  0  0  0  0  0  0  0
    4.9239    0.8687    0.0170 C   0  0  0  0  0  0  0  0  0  0  0  0
    3.3826   -2.0440    1.4250 C   0  0  0  0  0  0  0  0  0  0  0  0
    3.1992    2.5638   -0.0120 C   0  0  0  0  0  0  0  0  0  0  0  0
    5.9353    1.8067   -0.0853 C   0  0  0  0  0  0  0  0  0  0  0  0
    2.2743   -2.9085    1.4157 C   0  0  0  0  0  0  0  0  0  0  0  0
    4.1766   -1.9940    2.5810 C   0  0  0  0  0  0  0  0  0  0  0  0
    4.2062    3.5282   -0.1149 C   0  0  0  0  0  0  0  0  0  0  0  0
    5.5634    3.1526   -0.1516 C   0  0  0  0  0  0  0  0  0  0  0  0
    1.9779   -3.7078    2.5212 C   0  0  0  0  0  0  0  0  0  0  0  0
    3.8789   -2.7958    3.6861 C   0  0  0  0  0  0  0  0  0  0  0  0
    2.7816   -3.6524    3.6560 C   0  0  0  0  0  0  0  0  0  0  0  0
  1  4  2  0  0  0  0
  2  5  2  0  0  0  0
  3  4  1  0  0  0  0
  3  5  1  0  0  0  0
  3  8  1  0  0  0  0
  4  6  1  0  0  0  0
  5  7  1  0  0  0  0
  6  7  1  0  0  0  0
  6  9  2  0  0  0  0
  7 10  2  0  0  0  0
  8 11  2  0  0  0  0
  8 12  1  0  0  0  0
  9 13  1  0  0  0  0
 10 14  1  0  0  0  0
 11 15  1  0  0  0  0
 12 16  2  0  0  0  0
 13 14  2  0  0  0  0
 15 17  2  0  0  0  0
 16 17  1  0  0  0  0
M  END
