
 OpenBabel10141417483D

 15 15  0  0  0  0  0  0  0  0999 V2000
   -1.0900   -1.0332   -1.3926 C   0  0  0  0  0  0  0  0  0  0  0  0
   -2.5213   -1.0956   -0.9025 C   0  0  0  0  0  0  0  0  0  0  0  0
   -0.0302   -0.8373   -0.4948 C   0  0  0  0  0  0  0  0  0  0  0  0
   -0.7933   -1.1946   -2.7545 C   0  0  0  0  0  0  0  0  0  0  0  0
   -2.9916    0.2130   -0.2538 C   0  0  0  0  0  0  0  0  0  0  0  0
    1.2903   -0.7904   -0.9494 C   0  0  0  0  0  0  0  0  0  0  0  0
    0.5286   -1.1485   -3.2071 C   0  0  0  0  0  0  0  0  0  0  0  0
   -4.3780    0.1126    0.1805 N   0  0  0  0  0  0  0  0  0  0  0  0
    1.5700   -0.9457   -2.3049 C   0  0  0  0  0  0  0  0  0  0  0  0
   -4.8149   -0.2737    1.4097 C   0  0  0  0  0  0  0  0  0  0  0  0
   -6.1636   -0.1778    1.5911 N   0  0  0  0  0  0  0  0  0  0  0  0
   -4.0923   -0.7044    2.3844 N   0  0  0  0  0  0  0  0  0  0  0  0
   -7.2384   -0.1573    0.7649 C   0  0  0  0  0  0  0  0  0  0  0  0
   -8.4277    0.0012    1.3827 N   0  0  0  0  0  0  0  0  0  0  0  0
   -7.2303   -0.2943   -0.5182 N   0  0  0  0  0  0  0  0  0  0  0  0
  1  2  1  0  0  0  0
  1  3  2  0  0  0  0
  1  4  1  0  0  0  0
  2  5  1  0  0  0  0
  3  6  1  0  0  0  0
  4  7  2  0  0  0  0
  5  8  1  0  0  0  0
  6  9  2  0  0  0  0
  7  9  1  0  0  0  0
  8 10  1  0  0  0  0
 10 11  1  0  0  0  0
 10 12  2  0  0  0  0
 11 13  1  0  0  0  0
 13 14  1  0  0  0  0
 13 15  2  0  0  0  0
M  END
