1775
 OpenBabel10141417503D

 19 21  0  0  0  0  0  0  0  0999 V2000
    1.0992    0.0510   -0.3616 O   0  0  0  0  0  0  0  0  0  0  0  0
    5.3591   -1.3399    0.1787 O   0  0  0  0  0  0  0  0  0  0  0  0
    4.4292    0.7460    0.3569 N   0  0  0  0  0  0  0  0  0  0  0  0
    3.1262   -0.9652   -0.1475 N   0  0  0  0  0  0  0  0  0  0  0  0
    3.1331    1.3948    0.2191 C   0  0  0  0  0  0  0  0  0  0  0  0
    2.7752    2.0449    1.5641 C   0  0  0  0  0  0  0  0  0  0  0  0
    3.0960    2.3800   -0.9588 C   0  0  0  0  0  0  0  0  0  0  0  0
    2.3011    0.1181   -0.1318 C   0  0  0  0  0  0  0  0  0  0  0  0
    4.3933   -0.6018    0.1332 C   0  0  0  0  0  0  0  0  0  0  0  0
    1.6561    1.6623    2.3245 C   0  0  0  0  0  0  0  0  0  0  0  0
    1.9151    3.0957   -1.2365 C   0  0  0  0  0  0  0  0  0  0  0  0
    3.5949    3.0720    2.0782 C   0  0  0  0  0  0  0  0  0  0  0  0
    4.2032    2.5905   -1.8028 C   0  0  0  0  0  0  0  0  0  0  0  0
    1.8489    3.9923   -2.3058 C   0  0  0  0  0  0  0  0  0  0  0  0
    1.3767    2.2707    3.5521 C   0  0  0  0  0  0  0  0  0  0  0  0
    3.3149    3.6765    3.3060 C   0  0  0  0  0  0  0  0  0  0  0  0
    4.1345    3.4884   -2.8715 C   0  0  0  0  0  0  0  0  0  0  0  0
    2.9590    4.1898   -3.1214 C   0  0  0  0  0  0  0  0  0  0  0  0
    2.2067    3.2735    4.0438 C   0  0  0  0  0  0  0  0  0  0  0  0
  1  8  2  0  0  0  0
  2  9  2  0  0  0  0
  3  5  1  0  0  0  0
  3  9  1  0  0  0  0
  4  8  1  0  0  0  0
  4  9  1  0  0  0  0
  5  6  1  0  0  0  0
  5  7  1  0  0  0  0
  5  8  1  0  0  0  0
  6 10  2  0  0  0  0
  6 12  1  0  0  0  0
  7 11  2  0  0  0  0
  7 13  1  0  0  0  0
 10 15  1  0  0  0  0
 11 14  1  0  0  0  0
 12 16  2  0  0  0  0
 13 17  2  0  0  0  0
 14 18  2  0  0  0  0
 15 19  2  0  0  0  0
 16 19  1  0  0  0  0
 17 18  1  0  0  0  0
M  END
