830
 OpenBabel10141417483D

 13 14  0  0  1  0  0  0  0  0999 V2000
    0.7616    1.1463    0.1182 O   0  0  0  0  0  0  0  0  0  0  0  0
   -0.9145   -1.2140   -0.3720 N   0  0  0  0  0  0  0  0  0  0  0  0
    0.5659   -1.2777   -0.3230 C   0  0  3  0  0  0  0  0  0  0  0  0
    1.2497   -0.1523    0.5268 C   0  0  3  0  0  0  0  0  0  0  0  0
   -1.3111    0.1554   -0.7448 C   0  0  0  0  0  0  0  0  0  0  0  0
   -0.6684    1.2218    0.1514 C   0  0  0  0  0  0  0  0  0  0  0  0
    1.2900   -0.2052    2.0483 C   0  0  0  0  0  0  0  0  0  0  0  0
    1.0293   -2.6880    0.0392 C   0  0  0  0  0  0  0  0  0  0  0  0
    0.3945   -0.9317    2.8436 C   0  0  0  0  0  0  0  0  0  0  0  0
    2.2744    0.5603    2.7040 C   0  0  0  0  0  0  0  0  0  0  0  0
    0.4944   -0.9151    4.2391 C   0  0  0  0  0  0  0  0  0  0  0  0
    2.3755    0.5775    4.0965 C   0  0  0  0  0  0  0  0  0  0  0  0
    1.4854   -0.1646    4.8648 C   0  0  0  0  0  0  0  0  0  0  0  0
  1  4  1  0  0  0  0
  1  6  1  0  0  0  0
  2  3  1  0  0  0  0
  2  5  1  0  0  0  0
  3  4  1  0  0  0  0
  3  8  1  0  0  0  0
  4  7  1  0  0  0  0
  5  6  1  0  0  0  0
  7  9  2  0  0  0  0
  7 10  1  0  0  0  0
  9 11  1  0  0  0  0
 10 12  2  0  0  0  0
 11 13  2  0  0  0  0
 12 13  1  0  0  0  0
M  END
