1121
 OpenBabel10141417533D

 13 13  0  0  0  0  0  0  0  0999 V2000
    3.6740   -2.0236   -1.1201 O   0  0  0  0  0  0  0  0  0  0  0  0
    1.8869    1.5160    0.2174 O   0  0  0  0  0  0  0  0  0  0  0  0
    2.0375   -0.7319   -0.3231 N   0  0  0  0  0  0  0  0  0  0  0  0
    0.0566    0.2143    0.2684 N   0  0  0  0  0  0  0  0  0  0  0  0
    4.3473    0.2160   -0.4085 C   0  0  0  0  0  0  0  0  0  0  0  0
    5.7973   -0.1039   -0.7222 C   0  0  0  0  0  0  0  0  0  0  0  0
    6.1804   -0.4829   -2.0176 C   0  0  0  0  0  0  0  0  0  0  0  0
    6.7908    0.0109    0.2624 C   0  0  0  0  0  0  0  0  0  0  0  0
    3.3655   -0.9293   -0.6444 C   0  0  0  0  0  0  0  0  0  0  0  0
    7.5125   -0.7834   -2.3105 C   0  0  0  0  0  0  0  0  0  0  0  0
    8.1241   -0.2920   -0.0320 C   0  0  0  0  0  0  0  0  0  0  0  0
    8.4830   -0.6975   -1.3156 C   0  0  0  0  0  0  0  0  0  0  0  0
    1.3910    0.4141    0.0639 C   0  0  0  0  0  0  0  0  0  0  0  0
  1  9  2  0  0  0  0
  2 13  2  0  0  0  0
  3  9  1  0  0  0  0
  3 13  1  0  0  0  0
  4 13  1  0  0  0  0
  5  6  1  0  0  0  0
  5  9  1  0  0  0  0
  6  7  2  0  0  0  0
  6  8  1  0  0  0  0
  7 10  1  0  0  0  0
  8 11  2  0  0  0  0
 10 12  2  0  0  0  0
 11 12  1  0  0  0  0
M  END
