780
 OpenBabel10141417493D

 10 10  0  0  0  0  0  0  0  0999 V2000
    2.3956    0.9168   -1.0846 N   0  0  0  0  0  0  0  0  0  0  0  0
    1.2335    0.4786   -1.8237 N   0  0  0  0  0  0  0  0  0  0  0  0
    3.9035    0.3284    0.8491 C   0  0  0  0  0  0  0  0  0  0  0  0
    5.2475    0.2893    0.1549 C   0  0  0  0  0  0  0  0  0  0  0  0
    2.6925   -0.0612   -0.0217 C   0  0  0  0  0  0  0  0  0  0  0  0
    5.5547    1.1916   -0.8715 C   0  0  0  0  0  0  0  0  0  0  0  0
    6.2294   -0.6328    0.5507 C   0  0  0  0  0  0  0  0  0  0  0  0
    6.7921    1.1569   -1.5140 C   0  0  0  0  0  0  0  0  0  0  0  0
    7.4738   -0.6587   -0.0838 C   0  0  0  0  0  0  0  0  0  0  0  0
    7.7534    0.2283   -1.1195 C   0  0  0  0  0  0  0  0  0  0  0  0
  1  2  1  0  0  0  0
  1  5  1  0  0  0  0
  3  4  1  0  0  0  0
  3  5  1  0  0  0  0
  4  6  2  0  0  0  0
  4  7  1  0  0  0  0
  6  8  1  0  0  0  0
  7  9  2  0  0  0  0
  8 10  2  0  0  0  0
  9 10  1  0  0  0  0
M  END
