
 OpenBabel10141417483D

 21 23  0  0  0  0  0  0  0  0999 V2000
    0.7628    2.6363   -5.2201 C   0  0  0  0  0  0  0  0  0  0  0  0
    1.1125    3.9312   -5.5898 C   0  0  0  0  0  0  0  0  0  0  0  0
    2.2989    4.4826   -5.1145 C   0  0  0  0  0  0  0  0  0  0  0  0
    3.1406    3.7358   -4.2784 C   0  0  0  0  0  0  0  0  0  0  0  0
    2.8150    2.4201   -3.9080 C   0  0  0  0  0  0  0  0  0  0  0  0
    1.6135    1.9068   -4.3832 C   0  0  0  0  0  0  0  0  0  0  0  0
    1.1816    0.6254   -4.0090 O   0  0  0  0  0  0  0  0  0  0  0  0
    3.6350    1.5585   -3.0396 C   0  0  0  0  0  0  0  0  0  0  0  0
    3.2071    0.3483   -2.6256 C   0  0  0  0  0  0  0  0  0  0  0  0
    1.8781   -0.1557   -3.0916 C   0  0  0  0  0  0  0  0  0  0  0  0
    3.9586   -0.6336   -1.7005 C   0  0  3  0  0  0  0  0  0  0  0  0
    4.6021   -1.7522   -2.5197 C   0  0  0  0  0  0  0  0  0  0  0  0
    6.1830   -2.4898   -4.2118 C   0  0  0  0  0  0  0  0  0  0  0  0
    5.6122   -1.4701   -3.4518 C   0  0  0  0  0  0  0  0  0  0  0  0
    4.1938   -3.0848   -2.3494 C   0  0  0  0  0  0  0  0  0  0  0  0
    4.7770   -4.1061   -3.1015 C   0  0  0  0  0  0  0  0  0  0  0  0
    5.7653   -3.8070   -4.0371 C   0  0  0  0  0  0  0  0  0  0  0  0
    4.9922   -0.0118   -0.7172 C   0  0  0  0  0  0  0  0  0  0  0  0
    5.6243   -1.0035    0.2600 C   0  0  0  0  0  0  0  0  0  0  0  0
    4.8874    2.0201   -2.6884 O   0  0  0  0  0  0  0  0  0  0  0  0
    1.4052   -1.2122   -2.7016 O   0  0  0  0  0  0  0  0  0  0  0  0
  1  2  2  0  0  0  0
  1  6  1  0  0  0  0
  2  3  1  0  0  0  0
  3  4  2  0  0  0  0
  4  5  1  0  0  0  0
  5  8  1  0  0  0  0
  6  5  2  0  0  0  0
  7  6  1  0  0  0  0
  7 10  1  0  0  0  0
  8  9  2  0  0  0  0
  8 20  1  0  0  0  0
  9 10  1  0  0  0  0
  9 11  1  0  0  0  0
 10 21  2  0  0  0  0
 11 12  1  0  0  0  0
 11 18  1  0  0  0  0
 12 15  1  0  0  0  0
 13 14  1  0  0  0  0
 13 17  2  0  0  0  0
 14 12  2  0  0  0  0
 15 16  2  0  0  0  0
 16 17  1  0  0  0  0
 18 19  1  0  0  0  0
M  END
