832
 OpenBabel10141417483D

 14 15  0  0  1  0  0  0  0  0999 V2000
    1.1174    0.1095   -0.4279 O   0  0  0  0  0  0  0  0  0  0  0  0
    5.3664    1.6712    0.1712 O   0  0  0  0  0  0  0  0  0  0  0  0
    3.1440    1.1957   -0.2323 N   0  0  0  0  0  0  0  0  0  0  0  0
    3.1803   -1.1427   -0.1269 C   0  0  3  0  0  0  0  0  0  0  0  0
    4.5912   -0.6071    0.1080 C   0  0  0  0  0  0  0  0  0  0  0  0
    2.3318    0.0993   -0.2856 C   0  0  0  0  0  0  0  0  0  0  0  0
    3.1215   -2.1020   -1.2971 C   0  0  0  0  0  0  0  0  0  0  0  0
    4.4458    0.8818    0.0177 C   0  0  0  0  0  0  0  0  0  0  0  0
    2.6696    2.5548   -0.3354 C   0  0  0  0  0  0  0  0  0  0  0  0
    3.1460   -3.4847   -1.0545 C   0  0  0  0  0  0  0  0  0  0  0  0
    3.0966   -1.6546   -2.6275 C   0  0  0  0  0  0  0  0  0  0  0  0
    3.1305   -4.3948   -2.1130 C   0  0  0  0  0  0  0  0  0  0  0  0
    3.0793   -2.5675   -3.6842 C   0  0  0  0  0  0  0  0  0  0  0  0
    3.0960   -3.9361   -3.4272 C   0  0  0  0  0  0  0  0  0  0  0  0
  1  6  2  0  0  0  0
  2  8  2  0  0  0  0
  3  6  1  0  0  0  0
  3  8  1  0  0  0  0
  3  9  1  0  0  0  0
  4  5  1  0  0  0  0
  4  6  1  0  0  0  0
  4  7  1  0  0  0  0
  5  8  1  0  0  0  0
  7 10  2  0  0  0  0
  7 11  1  0  0  0  0
 10 12  1  0  0  0  0
 11 13  2  0  0  0  0
 12 14  2  0  0  0  0
 13 14  1  0  0  0  0
M  END
