191
 OpenBabel10141418083D

 11 11  0  0  0  0  0  0  0  0999 V2000
    2.4445   -0.2612   -1.2950 N   0  0  0  0  0  0  0  0  0  0  0  0
    2.1174    1.0354   -0.6647 C   0  0  0  0  0  0  0  0  0  0  0  0
    2.2214    0.8523    0.8764 C   0  0  0  0  0  0  0  0  0  0  0  0
    3.1104    2.0810   -1.1949 C   0  0  0  0  0  0  0  0  0  0  0  0
    0.6927    1.4043   -1.1027 C   0  0  0  0  0  0  0  0  0  0  0  0
    1.9663    2.0832    1.7184 C   0  0  0  0  0  0  0  0  0  0  0  0
    0.6754    2.3811    2.1750 C   0  0  0  0  0  0  0  0  0  0  0  0
    3.0198    2.9432    2.0610 C   0  0  0  0  0  0  0  0  0  0  0  0
    0.4405    3.5220    2.9443 C   0  0  0  0  0  0  0  0  0  0  0  0
    2.7834    4.0844    2.8288 C   0  0  0  0  0  0  0  0  0  0  0  0
    1.4941    4.3748    3.2684 C   0  0  0  0  0  0  0  0  0  0  0  0
  1  2  1  0  0  0  0
  2  3  1  0  0  0  0
  2  4  1  0  0  0  0
  2  5  1  0  0  0  0
  3  6  1  0  0  0  0
  6  7  2  0  0  0  0
  6  8  1  0  0  0  0
  7  9  1  0  0  0  0
  8 10  2  0  0  0  0
  9 11  2  0  0  0  0
 10 11  1  0  0  0  0
M  END
