6323481
 OpenBabel10141417483D

 25 24  0  0  1  0  0  0  0  0999 V2000
    3.1350    9.0557   12.2882 P   0  0  3  0  0  0  0  0  0  0  0  0
    3.0260    8.4858    7.8902 O   0  0  0  0  0  0  0  0  0  0  0  0
    2.7394   10.1546   11.1934 O   0  0  0  0  0  0  0  0  0  0  0  0
    5.1509    7.9622   11.4192 O   0  0  0  0  0  0  0  0  0  0  0  0
    2.8360    7.5930   11.4330 O   0  0  0  0  0  0  0  0  0  0  0  0
    1.9718    8.7502   13.3210 O   0  0  0  0  0  0  0  0  0  0  0  0
    4.3219    9.5373   13.0921 O   0  0  0  0  0  0  0  0  0  0  0  0
    4.7915    7.7829    6.5814 O   0  0  0  0  0  0  0  0  0  0  0  0
    3.9144    6.8520   13.1295 O   0  0  0  0  0  0  0  0  0  0  0  0
    6.3564    7.5524    8.2834 O   0  0  0  0  0  0  0  0  0  0  0  0
    6.3930    5.4135    7.7560 O   0  0  0  0  0  0  0  0  0  0  0  0
    6.1764    5.1971   10.7788 N   0  0  0  0  0  0  0  0  0  0  0  0
    3.6493    9.0896    9.1587 C   0  0  1  0  0  0  0  0  0  0  0  0
    2.4221    9.5997    9.9399 C   0  0  0  0  0  0  0  0  0  0  0  0
    4.3710    8.0436    9.9992 C   0  0  0  0  0  0  0  0  0  0  0  0
    2.7325    8.0056    5.5649 C   0  0  0  0  0  0  0  0  0  0  0  0
    3.6577    8.0251    6.7461 C   0  0  0  0  0  0  0  0  0  0  0  0
    2.1586    6.6320    5.2765 C   0  0  0  0  0  0  0  0  0  0  0  0
    3.4723    6.1117   10.9974 C   0  0  0  0  0  0  0  0  0  0  0  0
    5.0009    5.6377    9.9871 C   0  0  1  0  0  0  0  0  0  0  0  0
    3.1644    5.4932    5.1117 C   0  0  0  0  0  0  0  0  0  0  0  0
    4.9677    7.3008   12.6573 C   0  0  0  0  0  0  0  0  0  0  0  0
    6.0574    7.3393   13.6228 C   0  0  0  0  0  0  0  0  0  0  0  0
    5.8509    6.3502    8.6067 C   0  0  0  0  0  0  0  0  0  0  0  0
    5.4381    6.6992   14.9034 C   0  0  0  0  0  0  0  0  0  0  0  0
  1  3  1  0  0  0  0
  1  5  1  0  0  0  0
  1  6  1  0  0  0  0
  1  7  2  0  0  0  0
  2 17  1  0  0  0  0
  3 14  1  0  0  0  0
  4 15  1  0  0  0  0
  4 22  1  0  0  0  0
  5 19  1  0  0  0  0
  8 17  2  0  0  0  0
  9 22  2  0  0  0  0
 10 24  1  0  0  0  0
 11 24  2  0  0  0  0
 13 15  1  1  0  0  0
 13 14  1  0  0  0  0
 13  2  1  0  0  0  0
 16 17  1  0  0  0  0
 16 18  1  0  0  0  0
 18 21  1  0  0  0  0
 20 24  1  1  0  0  0
 20 19  1  0  0  0  0
 20 12  1  0  0  0  0
 22 23  1  0  0  0  0
 23 25  1  0  0  0  0
M  END
