
 OpenBabel10141417503D

 33 34  0  0  1  0  0  0  0  0999 V2000
   -5.2193   -5.5499   -5.7227 C   0  0  0  0  0  0  0  0  0  0  0  0
   -6.4015   -4.7310   -5.9597 C   0  0  0  0  0  0  0  0  0  0  0  0
   -5.1509   -6.3502   -4.5960 C   0  0  0  0  0  0  0  0  0  0  0  0
   -6.3014   -6.4190   -3.6501 C   0  0  0  0  0  0  0  0  0  0  0  0
   -3.9874   -7.0980   -4.3644 C   0  0  0  0  0  0  0  0  0  0  0  0
   -4.1638   -5.4808   -6.6348 C   0  0  0  0  0  0  0  0  0  0  0  0
   -7.3868   -5.3377   -3.7438 C   0  0  0  0  0  0  0  0  0  0  0  0
   -2.9095   -7.0159   -5.2608 C   0  0  0  0  0  0  0  0  0  0  0  0
   -7.3334   -4.4940   -4.8050 C   0  0  0  0  0  0  0  0  0  0  0  0
   -2.9983   -6.2164   -6.3956 C   0  0  0  0  0  0  0  0  0  0  0  0
   -6.3618   -7.2925   -2.8042 O   0  0  0  0  0  0  0  0  0  0  0  0
   -6.6005   -4.2397   -7.0461 O   0  0  0  0  0  0  0  0  0  0  0  0
   -8.3558   -5.2980   -2.5899 C   0  0  0  0  0  0  0  0  0  0  0  0
   -9.2403   -3.2486   -1.1761 C   0  0  0  0  0  0  0  0  0  0  0  0
   -9.6127   -1.7966   -1.0746 C   0  0  0  0  0  0  0  0  0  0  0  0
   -8.9747   -3.9888   -0.0382 C   0  0  0  0  0  0  0  0  0  0  0  0
   -8.4899   -0.7157   -0.7127 C   0  0  0  0  0  0  0  0  0  0  0  0
   -7.7343   -0.7223    0.6688 C   0  0  0  0  0  0  0  0  0  0  0  0
   -6.5603   -1.7293    0.9587 C   0  0  1  0  0  0  0  0  0  0  0  0
   -6.1062   -1.7549    2.4180 C   0  0  0  0  0  0  0  0  0  0  0  0
   -6.8584   -3.1536    0.8104 C   0  0  0  0  0  0  0  0  0  0  0  0
   -5.2528   -3.0650    2.8643 C   0  0  0  0  0  0  0  0  0  0  0  0
   -4.0641   -3.3985    1.9588 C   0  0  0  0  0  0  0  0  0  0  0  0
   -2.8801   -4.3455    2.0120 C   0  0  1  0  0  0  0  0  0  0  0  0
   -1.7694   -4.0891    0.8872 C   0  0  0  0  0  0  0  0  0  0  0  0
   -2.2274   -4.1815    3.3806 C   0  0  0  0  0  0  0  0  0  0  0  0
   -0.7828   -2.8413    0.8784 C   0  0  0  0  0  0  0  0  0  0  0  0
   -1.1505   -1.3679    0.4401 C   0  0  0  0  0  0  0  0  0  0  0  0
   -2.0833   -0.5138    1.3204 C   0  0  0  0  0  0  0  0  0  0  0  0
   -2.4024    0.9072    0.9170 C   0  0  0  0  0  0  0  0  0  0  0  0
   -3.4336   -1.0473    1.1358 C   0  0  0  0  0  0  0  0  0  0  0  0
   -9.1259   -4.0076   -2.4100 C   0  0  0  0  0  0  0  0  0  0  0  0
   -8.1615   -3.2628   -5.0922 C   0  0  0  0  0  0  0  0  0  0  0  0
  1  2  1  0  0  0  0
  1  6  1  0  0  0  0
  2 12  2  0  0  0  0
  2  9  1  0  0  0  0
  3  1  2  0  0  0  0
  3  4  1  0  0  0  0
  3  5  1  0  0  0  0
  4 11  2  0  0  0  0
  4  7  1  0  0  0  0
  5  8  2  0  0  0  0
  6 10  2  0  0  0  0
  7 13  1  0  0  0  0
  7  9  2  0  0  0  0
  8 10  1  0  0  0  0
  9 33  1  0  0  0  0
 13 32  1  0  0  0  0
 14 15  1  0  0  0  0
 14 16  1  0  0  0  0
 15 17  1  0  0  0  0
 17 18  1  0  0  0  0
 19 18  1  1  0  0  0
 19 20  1  0  0  0  0
 19 21  1  0  0  0  0
 20 22  1  0  0  0  0
 22 23  1  0  0  0  0
 24 23  1  6  0  0  0
 24 25  1  0  0  0  0
 24 26  1  0  0  0  0
 25 27  1  0  0  0  0
 27 28  1  0  0  0  0
 28 29  1  0  0  0  0
 29 30  1  0  0  0  0
 29 31  1  0  0  0  0
 32 14  2  0  0  0  0
M  END
