960
 OpenBabel10141417533D

 18 19  0  0  1  0  0  0  0  0999 V2000
    2.2840   -0.3479    0.6938 O   0  0  0  0  0  0  0  0  0  0  0  0
   -0.1505    0.8823   -0.4554 O   0  0  0  0  0  0  0  0  0  0  0  0
   -1.4258   -1.5553   -1.3066 N   0  0  0  0  0  0  0  0  0  0  0  0
    5.2532    1.0177    4.0137 N   0  0  0  0  0  0  0  0  0  0  0  0
   -0.1630   -0.2595    0.4206 C   0  0  3  0  0  0  0  0  0  0  0  0
   -1.4142   -1.1046    0.0991 C   0  0  0  0  0  0  0  0  0  0  0  0
   -2.6244   -2.3256   -1.6656 C   0  0  0  0  0  0  0  0  0  0  0  0
    1.1237   -1.0869    0.2617 C   0  0  0  0  0  0  0  0  0  0  0  0
    3.7781    0.3125    2.4724 C   0  0  0  0  0  0  0  0  0  0  0  0
    2.6554   -0.4374    2.0196 C   0  0  0  0  0  0  0  0  0  0  0  0
   -3.9109   -1.5198   -1.4784 C   0  0  0  0  0  0  0  0  0  0  0  0
   -2.5289   -2.7847   -3.1263 C   0  0  0  0  0  0  0  0  0  0  0  0
    4.1189    0.2591    3.8333 C   0  0  0  0  0  0  0  0  0  0  0  0
    4.7596    1.1483    1.8691 C   0  0  0  0  0  0  0  0  0  0  0  0
    2.0094   -1.2616    2.9565 C   0  0  0  0  0  0  0  0  0  0  0  0
    3.3993   -0.4768    4.7719 C   0  0  0  0  0  0  0  0  0  0  0  0
    5.6817    1.5270    2.8254 C   0  0  0  0  0  0  0  0  0  0  0  0
    2.3633   -1.2747    4.3070 C   0  0  0  0  0  0  0  0  0  0  0  0
  1  8  1  0  0  0  0
  1 10  1  0  0  0  0
  2  5  1  0  0  0  0
  3  6  1  0  0  0  0
  3  7  1  0  0  0  0
  4 13  1  0  0  0  0
  4 17  1  0  0  0  0
  5  6  1  0  0  0  0
  5  8  1  0  0  0  0
  7 11  1  0  0  0  0
  7 12  1  0  0  0  0
  9 10  1  0  0  0  0
  9 13  2  0  0  0  0
  9 14  1  0  0  0  0
 10 15  2  0  0  0  0
 13 16  1  0  0  0  0
 14 17  2  0  0  0  0
 15 18  1  0  0  0  0
 16 18  2  0  0  0  0
M  END
