1132
 OpenBabel10141417503D

 25 27  0  0  1  0  0  0  0  0999 V2000
    0.1462   -0.5242    0.1618 S   0  0  0  0  0  0  0  0  0  0  0  0
   -0.3406   -7.0040   -1.6372 O   0  0  0  0  0  0  0  0  0  0  0  0
   -3.4976   -0.8606   -1.0307 O   0  0  0  0  0  0  0  0  0  0  0  0
   -0.6178   -1.7037    2.3690 O   0  0  0  0  0  0  0  0  0  0  0  0
   -2.1842   -1.4274    0.7375 N   0  0  0  0  0  0  0  0  0  0  0  0
   -1.5830  -10.5000    0.4629 N   0  0  0  0  0  0  0  0  0  0  0  0
   -1.0955   -0.4876   -1.1667 C   0  0  3  0  0  0  0  0  0  0  0  0
   -0.7255   -1.3692   -2.3625 C   0  0  0  0  0  0  0  0  0  0  0  0
   -0.6302   -2.8563   -2.1047 C   0  0  0  0  0  0  0  0  0  0  0  0
   -2.3785   -0.9421   -0.5218 C   0  0  0  0  0  0  0  0  0  0  0  0
   -1.7821   -3.6415   -2.2100 C   0  0  0  0  0  0  0  0  0  0  0  0
    0.5830   -3.4784   -1.7810 C   0  0  0  0  0  0  0  0  0  0  0  0
   -1.2705   -9.2766   -1.6115 C   0  0  0  0  0  0  0  0  0  0  0  0
   -0.5077   -5.6477   -1.7516 C   0  0  0  0  0  0  0  0  0  0  0  0
   -1.5407   -7.7820   -1.7448 C   0  0  0  0  0  0  0  0  0  0  0  0
   -1.7209   -5.0209   -2.0327 C   0  0  0  0  0  0  0  0  0  0  0  0
    0.6406   -4.8669   -1.6018 C   0  0  0  0  0  0  0  0  0  0  0  0
   -0.7790   -9.6797   -0.2499 C   0  0  0  0  0  0  0  0  0  0  0  0
   -0.9411   -1.3264    1.2683 C   0  0  0  0  0  0  0  0  0  0  0  0
    0.0429  -10.4661    2.2662 C   0  0  0  0  0  0  0  0  0  0  0  0
    0.4523   -9.2453    0.2280 C   0  0  0  0  0  0  0  0  0  0  0  0
    0.4928  -10.9230    3.6272 C   0  0  0  0  0  0  0  0  0  0  0  0
    0.8610   -9.6364    1.4983 C   0  0  0  0  0  0  0  0  0  0  0  0
   -1.1512  -10.8809    1.6856 C   0  0  0  0  0  0  0  0  0  0  0  0
   -0.6402  -11.1797    4.6132 C   0  0  0  0  0  0  0  0  0  0  0  0
  1  7  1  0  0  0  0
  1 19  1  0  0  0  0
  2 14  1  0  0  0  0
  2 15  1  0  0  0  0
  3 10  2  0  0  0  0
  4 19  2  0  0  0  0
  5 10  1  0  0  0  0
  5 19  1  0  0  0  0
  6 18  2  0  0  0  0
  6 24  1  0  0  0  0
  7  8  1  0  0  0  0
  7 10  1  0  0  0  0
  8  9  1  0  0  0  0
  9 11  2  0  0  0  0
  9 12  1  0  0  0  0
 11 16  1  0  0  0  0
 12 17  2  0  0  0  0
 13 15  1  0  0  0  0
 13 18  1  0  0  0  0
 14 16  2  0  0  0  0
 14 17  1  0  0  0  0
 18 21  1  0  0  0  0
 20 22  1  0  0  0  0
 20 23  1  0  0  0  0
 20 24  2  0  0  0  0
 21 23  2  0  0  0  0
 22 25  1  0  0  0  0
M  END
