22425
 OpenBabel10141417483D

 28 31  0  0  0  0  0  0  0  0999 V2000
   -3.4709    5.3444    0.2185 S   0  0  0  0  0  0  0  0  0  0  0  0
    5.0383    3.4407    0.9103 O   0  0  0  0  0  0  0  0  0  0  0  0
    1.4275    3.5767    0.2351 O   0  0  0  0  0  0  0  0  0  0  0  0
    1.3811    3.9916   -1.9817 O   0  0  0  0  0  0  0  0  0  0  0  0
    8.3345    4.5632    2.3425 N   0  0  0  0  0  0  0  0  0  0  0  0
   -0.4425    4.6549   -0.6327 N   0  0  0  0  0  0  0  0  0  0  0  0
    0.3502    5.3577    1.5258 N   0  0  0  0  0  0  0  0  0  0  0  0
    8.4500    5.9386    1.8317 C   0  0  0  0  0  0  0  0  0  0  0  0
    9.6719    3.9458    2.4022 C   0  0  0  0  0  0  0  0  0  0  0  0
    9.1358    6.0341    0.4672 C   0  0  0  0  0  0  0  0  0  0  0  0
   10.4058    3.9381    1.0584 C   0  0  0  0  0  0  0  0  0  0  0  0
   10.4974    5.3466    0.4781 C   0  0  0  0  0  0  0  0  0  0  0  0
    7.3695    3.7438    1.5775 C   0  0  0  0  0  0  0  0  0  0  0  0
    5.9280    4.2800    1.6542 C   0  0  0  0  0  0  0  0  0  0  0  0
    3.7080    3.9721    0.9402 C   0  0  0  0  0  0  0  0  0  0  0  0
    2.7663    3.0636    0.1562 C   0  0  0  0  0  0  0  0  0  0  0  0
   -1.4644    4.7610   -1.6724 C   0  0  0  0  0  0  0  0  0  0  0  0
   -0.7176    5.1798    0.6915 C   0  0  0  0  0  0  0  0  0  0  0  0
   -2.8194    5.0364   -1.3947 C   0  0  0  0  0  0  0  0  0  0  0  0
   -1.9865    5.5507    1.1338 C   0  0  0  0  0  0  0  0  0  0  0  0
    0.8398    4.0985   -0.8945 C   0  0  0  0  0  0  0  0  0  0  0  0
   -1.1624    4.5412   -3.0351 C   0  0  0  0  0  0  0  0  0  0  0  0
   -3.7970    5.0424   -2.4159 C   0  0  0  0  0  0  0  0  0  0  0  0
   -2.1351    6.0862    2.4270 C   0  0  0  0  0  0  0  0  0  0  0  0
   -2.1364    4.5502   -4.0478 C   0  0  0  0  0  0  0  0  0  0  0  0
   -3.4611    4.7905   -3.7370 C   0  0  0  0  0  0  0  0  0  0  0  0
   -1.0436    6.2162    3.2702 C   0  0  0  0  0  0  0  0  0  0  0  0
    0.1752    5.8237    2.7790 C   0  0  0  0  0  0  0  0  0  0  0  0
  1 19  1  0  0  0  0
  1 20  1  0  0  0  0
  2 14  1  0  0  0  0
  2 15  1  0  0  0  0
  3 16  1  0  0  0  0
  3 21  1  0  0  0  0
  4 21  2  0  0  0  0
  5  8  1  0  0  0  0
  5  9  1  0  0  0  0
  5 13  1  0  0  0  0
  6 17  1  0  0  0  0
  6 18  1  0  0  0  0
  6 21  1  0  0  0  0
  7 18  1  0  0  0  0
  7 28  2  0  0  0  0
  8 10  1  0  0  0  0
  9 11  1  0  0  0  0
 10 12  1  0  0  0  0
 11 12  1  0  0  0  0
 13 14  1  0  0  0  0
 15 16  1  0  0  0  0
 17 19  1  0  0  0  0
 17 22  2  0  0  0  0
 18 20  2  0  0  0  0
 19 23  2  0  0  0  0
 20 24  1  0  0  0  0
 22 25  1  0  0  0  0
 23 26  1  0  0  0  0
 24 27  2  0  0  0  0
 25 26  2  0  0  0  0
 27 28  1  0  0  0  0
M  END
