
 OpenBabel10141417533D

 36 39  0  0  1  0  0  0  0  0999 V2000
   -1.2677   -2.8642    5.7188 N   0  0  0  0  0  0  0  0  0  0  0  0
   -0.7838   -0.5225    6.8710 S   0  0  0  0  0  0  0  0  0  0  0  0
   -3.5259   -0.1933    7.0699 C   0  0  0  0  0  0  0  0  0  0  0  0
   -2.4636   -0.7887    6.1406 C   0  0  0  0  0  0  0  0  0  0  0  0
   -2.4944    0.0031    4.8169 C   0  0  0  0  0  0  0  0  0  0  0  0
   -2.6028   -2.3062    5.8644 C   0  0  2  0  0  0  0  0  0  0  0  0
   -3.9734   -4.2111    6.3960 O   0  0  0  0  0  0  0  0  0  0  0  0
   -3.3047   -3.1533    6.9258 C   0  0  0  0  0  0  0  0  0  0  0  0
   -3.2165   -2.9978    8.1334 O   0  0  0  0  0  0  0  0  0  0  0  0
    0.6509   -2.2618    5.0747 C   0  0  2  0  0  0  0  0  0  0  0  0
    1.0957   -0.9704    4.4780 N   0  0  0  0  0  0  0  0  0  0  0  0
    1.7117   -0.9340    3.2414 C   0  0  0  0  0  0  0  0  0  0  0  0
    1.9722   -1.9607    2.6178 O   0  0  0  0  0  0  0  0  0  0  0  0
    2.1026    0.4783    2.7457 C   0  0  1  0  0  0  0  0  0  0  0  0
   -0.6656   -2.8572    4.4903 C   0  0  0  0  0  0  0  0  0  0  0  0
   -1.1760   -3.0496    3.4131 O   0  0  0  0  0  0  0  0  0  0  0  0
   -0.1581   -2.1817    6.3984 C   0  0  2  0  0  0  0  0  0  0  0  0
    3.4748    0.8603    3.2716 C   0  0  0  0  0  0  0  0  0  0  0  0
    2.0465    0.5233    1.2946 N   0  0  0  0  0  0  0  0  0  0  0  0
    5.9854    1.5061    4.3515 C   0  0  0  0  0  0  0  0  0  0  0  0
    5.8591    0.4180    3.4897 C   0  0  0  0  0  0  0  0  0  0  0  0
    4.6112    0.0970    2.9490 C   0  0  0  0  0  0  0  0  0  0  0  0
    3.6262    1.9648    4.1222 C   0  0  0  0  0  0  0  0  0  0  0  0
    4.8717    2.2820    4.6597 C   0  0  0  0  0  0  0  0  0  0  0  0
    1.7202    1.6530    0.6051 C   0  0  0  0  0  0  0  0  0  0  0  0
    1.4578    2.7020    1.1947 O   0  0  0  0  0  0  0  0  0  0  0  0
    1.6378    1.5350   -0.7792 N   0  0  0  0  0  0  0  0  0  0  0  0
    1.7067    0.3225   -1.4832 C   0  0  0  0  0  0  0  0  0  0  0  0
    1.2198    0.3303   -2.9644 C   0  0  0  0  0  0  0  0  0  0  0  0
    0.4716    1.4332   -3.3906 N   0  0  0  0  0  0  0  0  0  0  0  0
    0.1398    2.4894   -2.4514 C   0  0  0  0  0  0  0  0  0  0  0  0
    1.3240    2.7399   -1.5341 C   0  0  0  0  0  0  0  0  0  0  0  0
    2.1234   -0.7273   -1.0022 O   0  0  0  0  0  0  0  0  0  0  0  0
    1.4835   -0.6200   -3.6911 O   0  0  0  0  0  0  0  0  0  0  0  0
   -0.2192    1.3902   -4.6758 C   0  0  0  0  0  0  0  0  0  0  0  0
   -1.6263    0.8260   -4.5564 C   0  0  0  0  0  0  0  0  0  0  0  0
  1  6  1  0  0  0  0
  2 17  1  0  0  0  0
  2  4  1  0  0  0  0
  4  3  1  0  0  0  0
  4  5  1  0  0  0  0
  6  4  1  0  0  0  0
  6  8  1  1  0  0  0
  8  7  1  0  0  0  0
  8  9  2  0  0  0  0
 10 15  1  0  0  0  0
 10 11  1  6  0  0  0
 11 12  1  0  0  0  0
 12 13  2  0  0  0  0
 14 12  1  6  0  0  0
 14 18  1  0  0  0  0
 14 19  1  0  0  0  0
 15  1  1  0  0  0  0
 15 16  2  0  0  0  0
 17 10  1  0  0  0  0
 17  1  1  6  0  0  0
 18 23  1  0  0  0  0
 19 25  1  0  0  0  0
 20 21  2  0  0  0  0
 20 24  1  0  0  0  0
 21 22  1  0  0  0  0
 22 18  2  0  0  0  0
 23 24  2  0  0  0  0
 25 26  2  0  0  0  0
 25 27  1  0  0  0  0
 28 27  1  0  0  0  0
 28 29  1  0  0  0  0
 28 33  2  0  0  0  0
 29 30  1  0  0  0  0
 29 34  2  0  0  0  0
 30 31  1  0  0  0  0
 30 35  1  0  0  0  0
 31 32  1  0  0  0  0
 32 27  1  0  0  0  0
 35 36  1  0  0  0  0
M  END
