1621
 OpenBabel10141417503D

 32 35  0  0  0  0  0  0  0  0999 V2000
   -0.0846   -2.1916    0.4288 S   0  0  0  0  0  0  0  0  0  0  0  0
    5.1008    1.4104    0.1288 S   0  0  0  0  0  0  0  0  0  0  0  0
   -2.2455    6.6671   -7.9893 O   0  0  0  0  0  0  0  0  0  0  0  0
    4.7727    2.7653   -0.2336 O   0  0  0  0  0  0  0  0  0  0  0  0
    5.7881    1.1080    1.3575 O   0  0  0  0  0  0  0  0  0  0  0  0
    0.1275    4.8308   -3.0154 N   0  0  0  0  0  0  0  0  0  0  0  0
   -0.1447    0.9597    0.0943 N   0  0  0  0  0  0  0  0  0  0  0  0
    5.9621    0.7354   -1.1711 N   0  0  0  0  0  0  0  0  0  0  0  0
   -2.0714    6.4864   -4.1981 C   0  0  0  0  0  0  0  0  0  0  0  0
   -1.0504    7.0691   -3.2016 C   0  0  0  0  0  0  0  0  0  0  0  0
   -2.1885    4.9779   -3.9395 C   0  0  0  0  0  0  0  0  0  0  0  0
    0.2731    6.2887   -3.1653 C   0  0  0  0  0  0  0  0  0  0  0  0
   -0.8200    4.2994   -4.0033 C   0  0  0  0  0  0  0  0  0  0  0  0
   -1.7006    6.8341   -5.6569 C   0  0  0  0  0  0  0  0  0  0  0  0
   -0.1393    4.4212   -1.6249 C   0  0  0  0  0  0  0  0  0  0  0  0
   -0.1074    2.8937   -1.4605 C   0  0  0  0  0  0  0  0  0  0  0  0
   -2.6778    6.2808   -6.6913 C   0  0  0  0  0  0  0  0  0  0  0  0
   -0.1727    2.4455    0.0043 C   0  0  0  0  0  0  0  0  0  0  0  0
    1.1413    0.3323    0.1563 C   0  0  0  0  0  0  0  0  0  0  0  0
   -1.3990    0.2715    0.0474 C   0  0  0  0  0  0  0  0  0  0  0  0
    1.2774   -1.0635    0.3217 C   0  0  0  0  0  0  0  0  0  0  0  0
   -1.4812   -1.1316    0.1738 C   0  0  0  0  0  0  0  0  0  0  0  0
    2.3513    1.0636    0.0590 C   0  0  0  0  0  0  0  0  0  0  0  0
    3.6107    0.4350    0.1594 C   0  0  0  0  0  0  0  0  0  0  0  0
   -2.6349    0.9379   -0.1316 C   0  0  0  0  0  0  0  0  0  0  0  0
    2.5464   -1.6769    0.4214 C   0  0  0  0  0  0  0  0  0  0  0  0
    3.7101   -0.9303    0.3461 C   0  0  0  0  0  0  0  0  0  0  0  0
   -2.7196   -1.8063    0.1256 C   0  0  0  0  0  0  0  0  0  0  0  0
   -3.8663    0.2640   -0.1619 C   0  0  0  0  0  0  0  0  0  0  0  0
   -3.9097   -1.1126   -0.0338 C   0  0  0  0  0  0  0  0  0  0  0  0
    5.5017    1.0897   -2.5305 C   0  0  0  0  0  0  0  0  0  0  0  0
    7.4284    0.7593   -1.0327 C   0  0  0  0  0  0  0  0  0  0  0  0
  1 21  1  0  0  0  0
  1 22  1  0  0  0  0
  2  4  2  0  0  0  0
  2  5  2  0  0  0  0
  2  8  1  0  0  0  0
  2 24  1  0  0  0  0
  3 17  1  0  0  0  0
  6 12  1  0  0  0  0
  6 13  1  0  0  0  0
  6 15  1  0  0  0  0
  7 18  1  0  0  0  0
  7 19  1  0  0  0  0
  7 20  1  0  0  0  0
  8 31  1  0  0  0  0
  8 32  1  0  0  0  0
  9 10  1  0  0  0  0
  9 11  1  0  0  0  0
  9 14  1  0  0  0  0
 10 12  1  0  0  0  0
 11 13  1  0  0  0  0
 14 17  1  0  0  0  0
 15 16  1  0  0  0  0
 16 18  1  0  0  0  0
 19 21  2  0  0  0  0
 19 23  1  0  0  0  0
 20 22  1  0  0  0  0
 20 25  2  0  0  0  0
 21 26  1  0  0  0  0
 22 28  2  0  0  0  0
 23 24  2  0  0  0  0
 24 27  1  0  0  0  0
 25 29  1  0  0  0  0
 26 27  2  0  0  0  0
 28 30  1  0  0  0  0
 29 30  2  0  0  0  0
M  END
