236
 OpenBabel10141417493D

 16 16  0  0  0  0  0  0  0  0999 V2000
    0.9909    0.7567   -0.0559 Br  0  0  0  0  0  0  0  0  0  0  0  0
   11.9032    4.9809    5.1226 Br  0  0  0  0  0  0  0  0  0  0  0  0
    5.5630    0.2061    0.7169 O   0  0  0  0  0  0  0  0  0  0  0  0
    7.4290    5.7766    3.9595 O   0  0  0  0  0  0  0  0  0  0  0  0
    5.6293    1.9707    2.1725 N   0  0  0  0  0  0  0  0  0  0  0  0
    7.4597    4.1422    2.3423 N   0  0  0  0  0  0  0  0  0  0  0  0
    5.1682    3.2966    2.6265 C   0  0  0  0  0  0  0  0  0  0  0  0
    7.0427    1.7023    2.4867 C   0  0  0  0  0  0  0  0  0  0  0  0
    6.0515    4.3786    1.9871 C   0  0  0  0  0  0  0  0  0  0  0  0
    7.9502    2.8138    1.9207 C   0  0  0  0  0  0  0  0  0  0  0  0
    4.9960    1.1676    1.2347 C   0  0  0  0  0  0  0  0  0  0  0  0
    8.0461    4.8857    3.3558 C   0  0  0  0  0  0  0  0  0  0  0  0
    3.5776    1.5263    0.8314 C   0  0  0  0  0  0  0  0  0  0  0  0
    9.5029    4.5799    3.6620 C   0  0  0  0  0  0  0  0  0  0  0  0
    2.8210    0.2787    0.4179 C   0  0  0  0  0  0  0  0  0  0  0  0
   10.0362    5.4365    4.7875 C   0  0  0  0  0  0  0  0  0  0  0  0
  1 15  1  0  0  0  0
  2 16  1  0  0  0  0
  3 11  2  0  0  0  0
  4 12  2  0  0  0  0
  5  7  1  0  0  0  0
  5  8  1  0  0  0  0
  5 11  1  0  0  0  0
  6  9  1  0  0  0  0
  6 10  1  0  0  0  0
  6 12  1  0  0  0  0
  7  9  1  0  0  0  0
  8 10  1  0  0  0  0
 11 13  1  0  0  0  0
 12 14  1  0  0  0  0
 13 15  1  0  0  0  0
 14 16  1  0  0  0  0
M  END
