670
 OpenBabel10141417523D

 26 29  0  0  0  0  0  0  0  0999 V2000
    2.6730    0.6665   -1.4680 O   0  0  0  0  0  0  0  0  0  0  0  0
    2.6382    6.0906    0.1498 O   0  0  0  0  0  0  0  0  0  0  0  0
    3.8252    1.3048    1.2099 N   0  0  0  0  0  0  0  0  0  0  0  0
    5.2331    3.2144    3.0502 N   0  0  0  0  0  0  0  0  0  0  0  0
    3.5354    2.7592   -1.9729 N   0  0  0  0  0  0  0  0  0  0  0  0
    1.6976    4.9897   -1.5674 N   0  0  0  0  0  0  0  0  0  0  0  0
    2.3369    2.1806   -3.9325 N   0  0  0  0  0  0  0  0  0  0  0  0
    3.2302    2.5889    1.6349 C   0  0  0  0  0  0  0  0  0  0  0  0
    4.7420    0.8626    2.2818 C   0  0  0  0  0  0  0  0  0  0  0  0
    4.2573    3.6724    2.0452 C   0  0  0  0  0  0  0  0  0  0  0  0
    5.8084    1.9081    2.6856 C   0  0  0  0  0  0  0  0  0  0  0  0
    4.5173    1.3774   -0.1033 C   0  0  0  0  0  0  0  0  0  0  0  0
    6.2902    4.2092    3.2317 C   0  0  0  0  0  0  0  0  0  0  0  0
    3.5138    1.5519   -1.2670 C   0  0  0  0  0  0  0  0  0  0  0  0
    4.4855    3.7912   -1.8341 C   0  0  0  0  0  0  0  0  0  0  0  0
    2.4955    3.0367   -2.8903 C   0  0  0  0  0  0  0  0  0  0  0  0
    4.1517    5.0256   -1.2749 C   0  0  0  0  0  0  0  0  0  0  0  0
    1.6144    4.1019   -2.6527 C   0  0  0  0  0  0  0  0  0  0  0  0
    5.8014    3.5801   -2.2827 C   0  0  0  0  0  0  0  0  0  0  0  0
    2.7868    5.3659   -0.8256 C   0  0  0  0  0  0  0  0  0  0  0  0
    5.1482    5.9934   -1.0627 C   0  0  0  0  0  0  0  0  0  0  0  0
    0.5109    4.2410   -3.4971 C   0  0  0  0  0  0  0  0  0  0  0  0
    6.7771    4.5690   -2.1171 C   0  0  0  0  0  0  0  0  0  0  0  0
    6.4569    5.7650   -1.4810 C   0  0  0  0  0  0  0  0  0  0  0  0
    0.3397    3.3674   -4.5648 C   0  0  0  0  0  0  0  0  0  0  0  0
    1.2705    2.3610   -4.7395 C   0  0  0  0  0  0  0  0  0  0  0  0
  1 14  2  0  0  0  0
  2 20  2  0  0  0  0
  3  8  1  0  0  0  0
  3  9  1  0  0  0  0
  3 12  1  0  0  0  0
  4 10  1  0  0  0  0
  4 11  1  0  0  0  0
  4 13  1  0  0  0  0
  5 14  1  0  0  0  0
  5 15  1  0  0  0  0
  5 16  1  0  0  0  0
  6 18  1  0  0  0  0
  6 20  1  0  0  0  0
  7 16  1  0  0  0  0
  7 26  2  0  0  0  0
  8 10  1  0  0  0  0
  9 11  1  0  0  0  0
 12 14  1  0  0  0  0
 15 17  1  0  0  0  0
 15 19  2  0  0  0  0
 16 18  2  0  0  0  0
 17 20  1  0  0  0  0
 17 21  2  0  0  0  0
 18 22  1  0  0  0  0
 19 23  1  0  0  0  0
 21 24  1  0  0  0  0
 22 25  2  0  0  0  0
 23 24  2  0  0  0  0
 25 26  1  0  0  0  0
M  END
