1604
 OpenBabel10141417513D

 32 34  0  0  1  0  0  0  0  0999 V2000
    0.9710   -5.3085    7.1314 S   0  0  0  0  0  0  0  0  0  0  0  0
    3.5769   -7.4852    4.7418 O   0  0  0  0  0  0  0  0  0  0  0  0
    4.2824   -3.7582    7.6275 O   0  0  0  0  0  0  0  0  0  0  0  0
    5.1390   -5.2813    9.1113 O   0  0  0  0  0  0  0  0  0  0  0  0
   -0.1138   -4.1998    3.0948 O   0  0  0  0  0  0  0  0  0  0  0  0
    5.8216   -2.0619    7.3688 O   0  0  0  0  0  0  0  0  0  0  0  0
    7.4904   -3.4654    8.0473 O   0  0  0  0  0  0  0  0  0  0  0  0
    3.3384   -5.5413    6.0246 N   0  0  0  0  0  0  0  0  0  0  0  0
    0.7067   -6.0889    4.0789 N   0  0  0  0  0  0  0  0  0  0  0  0
   -1.8794   -7.0007    4.4019 N   0  0  0  0  0  0  0  0  0  0  0  0
    2.1176   -4.7715    5.8019 C   0  0  1  0  0  0  0  0  0  0  0  0
    2.2615   -6.2581    8.0833 C   0  0  0  0  0  0  0  0  0  0  0  0
    3.6205   -6.0236    7.3763 C   0  0  2  0  0  0  0  0  0  0  0  0
    2.0074   -5.4698    4.4227 C   0  0  1  0  0  0  0  0  0  0  0  0
    3.1159   -6.3909    4.9855 C   0  0  0  0  0  0  0  0  0  0  0  0
    2.1925   -5.7926    9.5491 C   0  0  0  0  0  0  0  0  0  0  0  0
    1.8841   -7.7439    8.0278 C   0  0  0  0  0  0  0  0  0  0  0  0
    4.4815   -5.0074    8.1163 C   0  0  0  0  0  0  0  0  0  0  0  0
   -0.2852   -5.3648    3.4527 C   0  0  0  0  0  0  0  0  0  0  0  0
   -1.6171   -6.1243    3.2358 C   0  0  1  0  0  0  0  0  0  0  0  0
    4.9545   -2.7003    8.2992 C   0  0  0  0  0  0  0  0  0  0  0  0
   -1.6932   -6.9062    1.9343 C   0  0  0  0  0  0  0  0  0  0  0  0
    7.6844   -2.3326    5.9017 C   0  0  0  0  0  0  0  0  0  0  0  0
   -0.5664   -7.4747    1.3195 C   0  0  0  0  0  0  0  0  0  0  0  0
   -2.9456   -7.0973    1.3199 C   0  0  0  0  0  0  0  0  0  0  0  0
    7.0274   -2.6700    7.2402 C   0  0  0  0  0  0  0  0  0  0  0  0
    9.2012   -2.4433    6.0998 C   0  0  0  0  0  0  0  0  0  0  0  0
    7.2200   -3.3455    4.8432 C   0  0  0  0  0  0  0  0  0  0  0  0
    7.3315   -0.9174    5.4241 C   0  0  0  0  0  0  0  0  0  0  0  0
   -0.6816   -8.1762    0.1155 C   0  0  0  0  0  0  0  0  0  0  0  0
   -3.0594   -7.8002    0.1169 C   0  0  0  0  0  0  0  0  0  0  0  0
   -1.9258   -8.3348   -0.4880 C   0  0  0  0  0  0  0  0  0  0  0  0
  1 12  1  0  0  0  0
  2 15  2  0  0  0  0
  3 18  1  0  0  0  0
  3 21  1  0  0  0  0
  4 18  2  0  0  0  0
  5 19  2  0  0  0  0
  6 21  1  0  0  0  0
  6 26  1  0  0  0  0
  7 26  2  0  0  0  0
  8 11  1  0  0  0  0
  8 13  1  0  0  0  0
  8 15  1  0  0  0  0
  9 19  1  0  0  0  0
 11  1  1  1  0  0  0
 11 14  1  0  0  0  0
 12 13  1  0  0  0  0
 12 16  1  0  0  0  0
 12 17  1  0  0  0  0
 13 18  1  1  0  0  0
 14 15  1  0  0  0  0
 14  9  1  1  0  0  0
 20 22  1  6  0  0  0
 20 19  1  0  0  0  0
 20 10  1  0  0  0  0
 22 24  2  0  0  0  0
 22 25  1  0  0  0  0
 23 26  1  0  0  0  0
 23 27  1  0  0  0  0
 23 28  1  0  0  0  0
 23 29  1  0  0  0  0
 24 30  1  0  0  0  0
 25 31  2  0  0  0  0
 30 32  2  0  0  0  0
 31 32  1  0  0  0  0
M  END
