
 OpenBabel10141417513D

 30 32  0  0  1  0  0  0  0  0999 V2000
    2.9945   -1.4328    0.9518 C   0  0  1  0  0  0  0  0  0  0  0  0
    1.3200   -2.0941   -0.1284 N   0  0  0  0  0  0  0  0  0  0  0  0
    1.5638   -1.9651    1.2830 C   0  0  2  0  0  0  0  0  0  0  0  0
    2.6291   -1.9019   -0.4977 C   0  0  0  0  0  0  0  0  0  0  0  0
   -0.5416   -0.5328    0.3491 C   0  0  0  0  0  0  0  0  0  0  0  0
    0.3110   -0.7861    1.9379 S   0  0  0  0  0  0  0  0  0  0  0  0
   -1.9504   -1.1416    0.5332 C   0  0  0  0  0  0  0  0  0  0  0  0
   -0.6815    0.9699    0.0859 C   0  0  0  0  0  0  0  0  0  0  0  0
    3.1076   -1.9372   -1.6046 O   0  0  0  0  0  0  0  0  0  0  0  0
    3.1461    0.0201    1.0778 N   0  0  0  0  0  0  0  0  0  0  0  0
    3.5077    0.5031    2.2203 C   0  0  0  0  0  0  0  0  0  0  0  0
    3.7734   -0.0260    3.4860 N   0  0  0  0  0  0  0  0  0  0  0  0
    2.8297   -0.9877    4.0601 C   0  0  0  0  0  0  0  0  0  0  0  0
    4.2906    0.9379    4.4815 C   0  0  0  0  0  0  0  0  0  0  0  0
    5.0779    0.2884    5.6205 C   0  0  0  0  0  0  0  0  0  0  0  0
    3.4512   -1.9947    5.0033 C   0  0  0  0  0  0  0  0  0  0  0  0
    4.2127   -0.2786    6.7491 C   0  0  0  0  0  0  0  0  0  0  0  0
    3.3739   -1.5130    6.4350 C   0  0  0  0  0  0  0  0  0  0  0  0
   -2.4416   -2.8454   -3.9212 C   0  0  0  0  0  0  0  0  0  0  0  0
   -3.7970   -3.3975   -4.2716 C   0  0  0  0  0  0  0  0  0  0  0  0
   -1.4678   -3.7838   -3.8063 O   0  0  0  0  0  0  0  0  0  0  0  0
   -0.9066   -4.0500   -2.5172 C   0  0  0  0  0  0  0  0  0  0  0  0
   -2.2324   -1.6668   -4.1351 O   0  0  0  0  0  0  0  0  0  0  0  0
   -4.8686   -2.5336   -3.5833 C   0  0  0  0  0  0  0  0  0  0  0  0
   -3.7853   -3.1602   -5.7935 C   0  0  0  0  0  0  0  0  0  0  0  0
    0.4020   -1.1599   -0.7045 C   0  0  2  0  0  0  0  0  0  0  0  0
   -0.3409   -1.8662   -1.7235 C   0  0  0  0  0  0  0  0  0  0  0  0
    0.0622   -3.1195   -2.0187 O   0  0  0  0  0  0  0  0  0  0  0  0
   -1.3555   -1.2985   -2.1274 O   0  0  0  0  0  0  0  0  0  0  0  0
   -3.9842   -4.8691   -3.9119 C   0  0  0  0  0  0  0  0  0  0  0  0
  1  4  1  0  0  0  0
  1 10  1  6  0  0  0
  3  1  1  0  0  0  0
  3  2  1  6  0  0  0
  3  6  1  0  0  0  0
  4  2  1  0  0  0  0
  5 26  1  0  0  0  0
  6  5  1  0  0  0  0
  7  5  1  0  0  0  0
  8  5  1  0  0  0  0
  9  4  2  0  0  0  0
 11 10  2  3  0  0  0
 12 11  1  0  0  0  0
 13 12  1  0  0  0  0
 14 12  1  0  0  0  0
 15 14  1  0  0  0  0
 16 13  1  0  0  0  0
 17 15  1  0  0  0  0
 18 16  1  0  0  0  0
 18 17  1  0  0  0  0
 20 19  1  0  0  0  0
 20 30  1  0  0  0  0
 21 19  1  0  0  0  0
 22 28  1  0  0  0  0
 22 21  1  0  0  0  0
 23 19  2  0  0  0  0
 24 20  1  0  0  0  0
 25 20  1  0  0  0  0
 26  2  1  0  0  0  0
 26 27  1  6  0  0  0
 28 27  1  0  0  0  0
 29 27  2  0  0  0  0
M  END
