
 OpenBabel10141417573D

 36 38  0  0  0  0  0  0  0  0999 V2000
    1.4978    2.7922   -5.1055 C   0  0  0  0  0  0  0  0  0  0  0  0
    0.9039    2.8570   -3.7007 C   0  0  0  0  0  0  0  0  0  0  0  0
    0.6428    4.2286   -3.2390 N   0  0  0  0  0  0  0  0  0  0  0  0
    0.3728    4.2369   -1.7868 C   0  0  0  0  0  0  0  0  0  0  0  0
    1.6635    4.1316   -0.9301 C   0  0  0  0  0  0  0  0  0  0  0  0
    1.4300    3.4964    0.3793 N   0  0  0  0  0  0  0  0  0  0  0  0
    2.6315    2.8275    0.9008 C   0  0  0  0  0  0  0  0  0  0  0  0
    2.6881    1.2999    0.6486 C   0  0  0  0  0  0  0  0  0  0  0  0
    2.5905    0.9452   -0.8392 C   0  0  0  0  0  0  0  0  0  0  0  0
    2.8747   -0.4613   -1.2007 N   0  0  0  0  0  0  0  0  0  0  0  0
    3.3389   -0.5080   -2.6148 C   0  0  0  0  0  0  0  0  0  0  0  0
    2.2898   -0.1906   -3.7160 C   0  0  0  0  0  0  0  0  0  0  0  0
    2.8420    0.6972   -4.7500 N   0  0  0  0  0  0  0  0  0  0  0  0
    1.8110    1.3520   -5.5625 C   0  0  0  0  0  0  0  0  0  0  0  0
    1.7127   -1.3386   -0.9453 C   0  0  0  0  0  0  0  0  0  0  0  0
    1.9441   -2.7976   -1.3008 C   0  0  0  0  0  0  0  0  0  0  0  0
    1.1558   -3.4398   -2.2699 C   0  0  0  0  0  0  0  0  0  0  0  0
    1.3992   -4.7757   -2.6102 C   0  0  0  0  0  0  0  0  0  0  0  0
    2.4269   -5.5023   -1.9937 C   0  0  0  0  0  0  0  0  0  0  0  0
    3.1908   -4.8697   -1.0027 C   0  0  0  0  0  0  0  0  0  0  0  0
    2.9524   -3.5322   -0.6675 C   0  0  0  0  0  0  0  0  0  0  0  0
    2.6777   -6.9505   -2.3603 C   0  0  0  0  0  0  0  0  0  0  0  0
    4.0153   -7.2662   -2.9148 N   0  0  0  0  0  0  0  0  0  0  0  0
    4.3562   -6.5019   -4.1277 C   0  0  0  0  0  0  0  0  0  0  0  0
    5.3313   -5.3474   -3.8849 C   0  0  0  0  0  0  0  0  0  0  0  0
    5.6231   -4.5013   -5.1415 C   0  0  0  0  0  0  0  0  0  0  0  0
    4.4397   -3.9899   -5.8509 N   0  0  0  0  0  0  0  0  0  0  0  0
    4.0154   -4.8689   -6.9536 C   0  0  0  0  0  0  0  0  0  0  0  0
    2.5182   -5.2835   -6.9131 C   0  0  0  0  0  0  0  0  0  0  0  0
    2.3730   -6.6726   -7.3592 N   0  0  0  0  0  0  0  0  0  0  0  0
    1.0359   -7.2250   -7.1439 C   0  0  0  0  0  0  0  0  0  0  0  0
    1.0915   -8.7639   -7.1628 C   0  0  0  0  0  0  0  0  0  0  0  0
    1.5001   -9.4271   -5.8317 C   0  0  0  0  0  0  0  0  0  0  0  0
    2.7094   -8.8477   -5.2418 N   0  0  0  0  0  0  0  0  0  0  0  0
    3.0671   -9.4906   -3.9671 C   0  0  0  0  0  0  0  0  0  0  0  0
    4.1558   -8.7301   -3.1419 C   0  0  0  0  0  0  0  0  0  0  0  0
  1  2  1  0  0  0  0
  1 14  1  0  0  0  0
  2  3  1  0  0  0  0
  3  4  1  0  0  0  0
  4  5  1  0  0  0  0
  5  6  1  0  0  0  0
  6  7  1  0  0  0  0
  7  8  1  0  0  0  0
  8  9  1  0  0  0  0
  9 10  1  0  0  0  0
 10 11  1  0  0  0  0
 10 15  1  0  0  0  0
 11 12  1  0  0  0  0
 12 13  1  0  0  0  0
 13 14  1  0  0  0  0
 15 16  1  0  0  0  0
 16 17  2  0  0  0  0
 16 21  1  0  0  0  0
 17 18  1  0  0  0  0
 18 19  2  0  0  0  0
 19 20  1  0  0  0  0
 19 22  1  0  0  0  0
 20 21  2  0  0  0  0
 22 23  1  0  0  0  0
 23 24  1  0  0  0  0
 23 36  1  0  0  0  0
 24 25  1  0  0  0  0
 25 26  1  0  0  0  0
 26 27  1  0  0  0  0
 27 28  1  0  0  0  0
 28 29  1  0  0  0  0
 29 30  1  0  0  0  0
 30 31  1  0  0  0  0
 31 32  1  0  0  0  0
 32 33  1  0  0  0  0
 33 34  1  0  0  0  0
 34 35  1  0  0  0  0
 35 36  1  0  0  0  0
M  END
