1179
 OpenBabel10141417483D

 30 34  0  0  1  0  0  0  0  0999 V2000
   -5.4408    0.0191    0.1868 O   0  0  0  0  0  0  0  0  0  0  0  0
   -2.9384   -3.0723    0.3000 O   0  0  0  0  0  0  0  0  0  0  0  0
   -4.4615    1.9760   -0.4235 O   0  0  0  0  0  0  0  0  0  0  0  0
    2.6890   -0.5801    1.5618 O   0  0  0  0  0  0  0  0  0  0  0  0
    2.0371   -2.5532    2.7858 O   0  0  0  0  0  0  0  0  0  0  0  0
   -1.3216   -3.5481   -3.4562 O   0  0  0  0  0  0  0  0  0  0  0  0
   -4.3973    0.1444   -4.4723 O   0  0  0  0  0  0  0  0  0  0  0  0
   -3.3486   -2.4438   -5.1957 O   0  0  0  0  0  0  0  0  0  0  0  0
   -3.6622   -0.9933    1.3484 C   0  0  1  0  0  0  0  0  0  0  0  0
   -3.1439    0.2700    0.6652 C   0  0  1  0  0  0  0  0  0  0  0  0
   -1.9058    0.1052   -0.2502 C   0  0  1  0  0  0  0  0  0  0  0  0
   -2.7025   -2.1859    1.3808 C   0  0  2  0  0  0  0  0  0  0  0  0
   -0.8611   -0.6053    0.6126 C   0  0  0  0  0  0  0  0  0  0  0  0
   -5.0029   -1.2431    0.6925 C   0  0  0  0  0  0  0  0  0  0  0  0
   -1.2559   -1.7392    1.3841 C   0  0  0  0  0  0  0  0  0  0  0  0
   -4.3826    0.8733    0.0643 C   0  0  0  0  0  0  0  0  0  0  0  0
   -2.1328   -0.5289   -1.6267 C   0  0  0  0  0  0  0  0  0  0  0  0
    0.4702   -0.1590    0.6432 C   0  0  0  0  0  0  0  0  0  0  0  0
   -0.3005   -2.4546    2.1196 C   0  0  0  0  0  0  0  0  0  0  0  0
    1.3684   -0.8691    1.4116 C   0  0  0  0  0  0  0  0  0  0  0  0
    0.9963   -1.9896    2.1164 C   0  0  0  0  0  0  0  0  0  0  0  0
   -2.9540    0.1263   -2.5429 C   0  0  0  0  0  0  0  0  0  0  0  0
   -1.5871   -1.7387   -2.0585 C   0  0  0  0  0  0  0  0  0  0  0  0
   -1.9463   -2.3329   -3.2894 C   0  0  0  0  0  0  0  0  0  0  0  0
   -3.4025   -0.4657   -3.7396 C   0  0  0  0  0  0  0  0  0  0  0  0
   -2.8872   -1.7091   -4.1380 C   0  0  0  0  0  0  0  0  0  0  0  0
    3.0973   -1.6290    2.4649 C   0  0  0  0  0  0  0  0  0  0  0  0
   -1.5054   -4.2486   -4.6770 C   0  0  0  0  0  0  0  0  0  0  0  0
   -5.3221    0.8924   -3.6679 C   0  0  0  0  0  0  0  0  0  0  0  0
   -3.7603   -1.8089   -6.3960 C   0  0  0  0  0  0  0  0  0  0  0  0
  1 14  1  0  0  0  0
  1 16  1  0  0  0  0
  3 16  2  0  0  0  0
  4 20  1  0  0  0  0
  4 27  1  0  0  0  0
  5 21  1  0  0  0  0
  5 27  1  0  0  0  0
  6 24  1  0  0  0  0
  6 28  1  0  0  0  0
  7 25  1  0  0  0  0
  7 29  1  0  0  0  0
  8 26  1  0  0  0  0
  8 30  1  0  0  0  0
  9 10  1  0  0  0  0
  9 12  1  0  0  0  0
  9 14  1  1  0  0  0
 10 11  1  0  0  0  0
 10 16  1  6  0  0  0
 11 13  1  0  0  0  0
 11 17  1  6  0  0  0
 12 15  1  0  0  0  0
 12  2  1  6  0  0  0
 13 15  1  0  0  0  0
 13 18  2  0  0  0  0
 15 19  2  0  0  0  0
 17 22  2  0  0  0  0
 17 23  1  0  0  0  0
 18 20  1  0  0  0  0
 19 21  1  0  0  0  0
 20 21  2  0  0  0  0
 22 25  1  0  0  0  0
 23 24  2  0  0  0  0
 24 26  1  0  0  0  0
 25 26  2  0  0  0  0
M  END
