
 OpenBabel10141417593D

 16 15  0  0  0  0  0  0  0  0999 V2000
    0.2478    1.0357   -0.0088 C   0  0  0  0  0  0  0  0  0  0  0  0
   -0.2514    1.7191    1.2569 C   0  0  0  0  0  0  0  0  0  0  0  0
    0.6286    1.4609    2.4883 C   0  0  0  0  0  0  0  0  0  0  0  0
    2.0592    1.9960    2.3287 C   0  0  0  0  0  0  0  0  0  0  0  0
    2.9319    1.7581    3.5685 C   0  0  0  0  0  0  0  0  0  0  0  0
    4.3584    2.3010    3.3647 C   0  0  0  0  0  0  0  0  0  0  0  0
    5.2537    2.0660    4.5898 C   0  0  0  0  0  0  0  0  0  0  0  0
    6.6843    2.5933    4.3899 C   0  0  0  0  0  0  0  0  0  0  0  0
    7.5551    2.3377    5.6306 C   0  0  0  0  0  0  0  0  0  0  0  0
    8.9741    2.8856    5.4629 C   0  0  0  0  0  0  0  0  0  0  0  0
    9.8983    2.5770    6.6428 C   0  0  0  0  0  0  0  0  0  0  0  0
    9.5508    3.2851    7.9542 C   0  0  0  0  0  0  0  0  0  0  0  0
   10.4255    2.8916    9.0216 O   0  0  0  0  0  0  0  0  0  0  0  0
   11.7967    3.2502    8.8078 C   0  0  0  0  0  0  0  0  0  0  0  0
   12.6090    2.8499   10.0352 C   0  0  0  0  0  0  0  0  0  0  0  0
   12.5184    1.4342   10.2217 O   0  0  0  0  0  0  0  0  0  0  0  0
  1  2  1  0  0  0  0
  2  3  1  0  0  0  0
  3  4  1  0  0  0  0
  4  5  1  0  0  0  0
  5  6  1  0  0  0  0
  6  7  1  0  0  0  0
  7  8  1  0  0  0  0
  8  9  1  0  0  0  0
  9 10  1  0  0  0  0
 10 11  1  0  0  0  0
 11 12  1  0  0  0  0
 12 13  1  0  0  0  0
 13 14  1  0  0  0  0
 14 15  1  0  0  0  0
 15 16  1  0  0  0  0
M  END
