1324
 OpenBabel10141417513D

 25 26  0  0  1  0  0  0  0  0999 V2000
    1.0264    0.5421   -0.1090 Cl  0  0  0  0  0  0  0  0  0  0  0  0
    7.2137   -0.2875    0.1514 S   0  0  0  0  0  0  0  0  0  0  0  0
    7.0592    5.1047    0.9601 S   0  0  0  0  0  0  0  0  0  0  0  0
    2.2660   -2.5138   -0.2021 S   0  0  0  0  0  0  0  0  0  0  0  0
    9.9943    5.4980    0.9192 F   0  0  0  0  0  0  0  0  0  0  0  0
    9.9891    6.4446   -1.0393 F   0  0  0  0  0  0  0  0  0  0  0  0
    9.9348    7.6676    0.7655 F   0  0  0  0  0  0  0  0  0  0  0  0
    7.5598   -1.2678   -0.8558 O   0  0  0  0  0  0  0  0  0  0  0  0
    7.6270   -0.4490    1.5295 O   0  0  0  0  0  0  0  0  0  0  0  0
    1.3738   -2.3627   -1.3294 O   0  0  0  0  0  0  0  0  0  0  0  0
    3.0961   -3.6833   -0.0406 O   0  0  0  0  0  0  0  0  0  0  0  0
    7.7745    1.2227   -0.3891 N   0  0  0  0  0  0  0  0  0  0  0  0
    5.7439    2.3421    0.1845 N   0  0  0  0  0  0  0  0  0  0  0  0
    1.3229   -2.4668    1.1851 N   0  0  0  0  0  0  0  0  0  0  0  0
    7.1865    2.3147    0.4120 C   0  0  3  0  0  0  0  0  0  0  0  0
    5.4737   -0.0908    0.1391 C   0  0  0  0  0  0  0  0  0  0  0  0
    4.9598    1.1994    0.2111 C   0  0  0  0  0  0  0  0  0  0  0  0
    7.7519    3.7049   -0.0166 C   0  0  0  0  0  0  0  0  0  0  0  0
    9.2491    1.2473   -0.5073 C   0  0  0  0  0  0  0  0  0  0  0  0
    4.6580   -1.2252    0.0182 C   0  0  0  0  0  0  0  0  0  0  0  0
    3.5660    1.3277    0.1272 C   0  0  0  0  0  0  0  0  0  0  0  0
    3.2691   -1.0692   -0.0456 C   0  0  0  0  0  0  0  0  0  0  0  0
    2.7184    0.2116    0.0004 C   0  0  0  0  0  0  0  0  0  0  0  0
    7.9470    6.5127    0.1594 C   0  0  0  0  0  0  0  0  0  0  0  0
    9.4751    6.5235    0.2110 C   0  0  0  0  0  0  0  0  0  0  0  0
  1 23  1  0  0  0  0
  2  8  2  0  0  0  0
  2  9  2  0  0  0  0
  2 12  1  0  0  0  0
  2 16  1  0  0  0  0
  3 18  1  0  0  0  0
  3 24  1  0  0  0  0
  4 10  2  0  0  0  0
  4 11  2  0  0  0  0
  4 14  1  0  0  0  0
  4 22  1  0  0  0  0
  5 25  1  0  0  0  0
  6 25  1  0  0  0  0
  7 25  1  0  0  0  0
 12 15  1  0  0  0  0
 12 19  1  0  0  0  0
 13 15  1  0  0  0  0
 13 17  1  0  0  0  0
 15 18  1  0  0  0  0
 16 17  1  0  0  0  0
 16 20  2  0  0  0  0
 17 21  2  0  0  0  0
 20 22  1  0  0  0  0
 21 23  1  0  0  0  0
 22 23  2  0  0  0  0
 24 25  1  0  0  0  0
M  END
