
 OpenBabel10141417513D

 20 22  0  0  0  0  0  0  0  0999 V2000
   -2.0780   -0.5449   -0.2925 N   0  0  0  0  0  0  0  0  0  0  0  0
   -3.5088   -0.8068   -0.3606 C   0  0  3  0  0  0  0  0  0  0  0  0
   -1.4835    0.6640   -0.5150 C   0  0  0  0  0  0  0  0  0  0  0  0
   -1.1620   -1.4855    0.0972 C   0  0  0  0  0  0  0  0  0  0  0  0
   -4.0278   -0.4505   -1.7520 C   0  0  0  0  0  0  0  0  0  0  0  0
   -4.3343   -0.2008    0.7717 C   0  0  0  0  0  0  0  0  0  0  0  0
   -0.0508    0.4775   -0.3050 C   0  0  0  0  0  0  0  0  0  0  0  0
   -1.9967    1.7192   -0.8319 O   0  0  0  0  0  0  0  0  0  0  0  0
    0.1533   -0.8439    0.0541 C   0  0  0  0  0  0  0  0  0  0  0  0
   -1.3609   -2.6225    0.4857 O   0  0  0  0  0  0  0  0  0  0  0  0
   -4.9874    0.5286   -1.8253 N   0  0  0  0  0  0  0  0  0  0  0  0
   -3.5756   -0.9585   -2.7776 O   0  0  0  0  0  0  0  0  0  0  0  0
   -4.7503    1.2366    0.5177 C   0  0  0  0  0  0  0  0  0  0  0  0
    0.9883    1.3780   -0.4241 C   0  0  0  0  0  0  0  0  0  0  0  0
    1.4118   -1.3469    0.3447 C   0  0  0  0  0  0  0  0  0  0  0  0
   -5.3492    1.4262   -0.8541 C   0  0  0  0  0  0  0  0  0  0  0  0
    2.2745    0.8941   -0.1809 C   0  0  0  0  0  0  0  0  0  0  0  0
    2.4820   -0.4560    0.1789 C   0  0  0  0  0  0  0  0  0  0  0  0
   -6.0930    2.3682   -1.1165 O   0  0  0  0  0  0  0  0  0  0  0  0
    1.6498   -2.7056    0.5537 N   0  0  0  0  0  0  0  0  0  0  0  0
  1  2  1  0  0  0  0
  1  3  1  0  0  0  0
  1  4  1  0  0  0  0
  2  5  1  0  0  0  0
  2  6  1  0  0  0  0
  3  7  1  0  0  0  0
  3  8  2  0  0  0  0
  4  9  1  0  0  0  0
  4 10  2  0  0  0  0
  5 11  1  0  0  0  0
  5 12  2  0  0  0  0
  6 13  1  0  0  0  0
  7 14  1  0  0  0  0
  7  9  2  0  0  0  0
  9 15  1  0  0  0  0
 11 16  1  0  0  0  0
 13 16  1  0  0  0  0
 14 17  2  0  0  0  0
 15 18  2  0  0  0  0
 15 20  1  0  0  0  0
 16 19  2  0  0  0  0
 17 18  1  0  0  0  0
M  END
