
 OpenBabel10141417493D

 39 43  0  0  0  0  0  0  0  0999 V2000
    0.7943   -0.7910   -1.0733 N   0  0  0  0  0  0  0  0  0  0  0  0
    1.4141   -2.1129   -1.3119 C   0  0  0  0  0  0  0  0  0  0  0  0
    0.6946   -2.9831   -2.3717 C   0  0  0  0  0  0  0  0  0  0  0  0
   -0.7426   -3.1943   -2.1224 N   0  0  0  0  0  0  0  0  0  0  0  0
   -1.3908   -1.9044   -1.8092 C   0  0  0  0  0  0  0  0  0  0  0  0
   -0.6403   -1.0177   -0.7803 C   0  0  0  0  0  0  0  0  0  0  0  0
   -0.9582   -4.1754   -1.0601 C   0  0  0  0  0  0  0  0  0  0  0  0
    0.9720    0.1481   -2.1964 C   0  0  0  0  0  0  0  0  0  0  0  0
    2.4359    0.5001   -2.4342 C   0  0  0  0  0  0  0  0  0  0  0  0
    3.1029    1.5782   -1.8189 C   0  0  0  0  0  0  0  0  0  0  0  0
    4.4882    1.7458   -2.0761 C   0  0  0  0  0  0  0  0  0  0  0  0
    5.1816    0.9515   -2.9960 C   0  0  0  0  0  0  0  0  0  0  0  0
    4.5402   -0.1548   -3.5378 C   0  0  0  0  0  0  0  0  0  0  0  0
    3.1825   -0.3553   -3.2801 C   0  0  0  0  0  0  0  0  0  0  0  0
    2.4438    2.6511   -0.9687 C   0  0  0  0  0  0  0  0  0  0  0  0
    1.0951    2.5600   -0.8163 F   0  0  0  0  0  0  0  0  0  0  0  0
    2.9478    2.7120    0.2963 F   0  0  0  0  0  0  0  0  0  0  0  0
    2.6423    3.8957   -1.4991 F   0  0  0  0  0  0  0  0  0  0  0  0
    6.4821    1.2730   -3.4562 N   0  0  0  0  0  0  0  0  0  0  0  0
    6.9593    2.5795   -3.5671 C   0  0  0  0  0  0  0  0  0  0  0  0
    8.3206    2.7154   -4.1635 C   0  0  0  0  0  0  0  0  0  0  0  0
    6.3341    3.5980   -3.2960 O   0  0  0  0  0  0  0  0  0  0  0  0
    8.5881    3.7436   -5.0754 C   0  0  0  0  0  0  0  0  0  0  0  0
    9.8519    3.8433   -5.6895 C   0  0  0  0  0  0  0  0  0  0  0  0
   10.8537    2.8967   -5.3988 C   0  0  0  0  0  0  0  0  0  0  0  0
   10.5864    1.9081   -4.4412 C   0  0  0  0  0  0  0  0  0  0  0  0
    9.3411    1.8305   -3.8112 C   0  0  0  0  0  0  0  0  0  0  0  0
   12.1755    2.8589   -6.1228 C   0  0  0  0  0  0  0  0  0  0  0  0
   10.1050    4.9546   -6.5424 C   0  0  0  0  0  0  0  0  0  0  0  0
   10.3493    5.9724   -7.1545 C   0  0  0  0  0  0  0  0  0  0  0  0
   10.6479    7.2138   -7.7468 C   0  0  0  0  0  0  0  0  0  0  0  0
    9.8683    8.3494   -7.7783 C   0  0  0  0  0  0  0  0  0  0  0  0
   10.5202    9.3870   -8.3964 N   0  0  0  0  0  0  0  0  0  0  0  0
   11.6939    8.8952   -8.7363 C   0  0  0  0  0  0  0  0  0  0  0  0
   11.8209    7.5611   -8.3718 N   0  0  0  0  0  0  0  0  0  0  0  0
   12.7966    9.4976   -9.3810 C   0  0  0  0  0  0  0  0  0  0  0  0
   13.8930    8.7690   -9.6226 C   0  0  0  0  0  0  0  0  0  0  0  0
   13.8738    7.3509   -9.1892 C   0  0  0  0  0  0  0  0  0  0  0  0
   12.9022    6.7451   -8.5837 N   0  0  0  0  0  0  0  0  0  0  0  0
  1  2  1  0  0  0  0
  1  6  1  0  0  0  0
  1  8  1  0  0  0  0
  2  3  1  0  0  0  0
  3  4  1  0  0  0  0
  4  5  1  0  0  0  0
  4  7  1  0  0  0  0
  5  6  1  0  0  0  0
  8  9  1  0  0  0  0
  9 10  1  0  0  0  0
  9 14  2  0  0  0  0
 10 11  2  0  0  0  0
 10 15  1  0  0  0  0
 11 12  1  0  0  0  0
 12 13  2  0  0  0  0
 12 19  1  0  0  0  0
 13 14  1  0  0  0  0
 15 16  1  0  0  0  0
 15 17  1  0  0  0  0
 15 18  1  0  0  0  0
 19 20  1  0  0  0  0
 20 21  1  0  0  0  0
 20 22  2  0  0  0  0
 21 23  2  0  0  0  0
 21 27  1  0  0  0  0
 23 24  1  0  0  0  0
 24 25  2  0  0  0  0
 24 29  1  0  0  0  0
 25 26  1  0  0  0  0
 25 28  1  0  0  0  0
 26 27  2  0  0  0  0
 29 30  3  0  0  0  0
 30 31  1  0  0  0  0
 31 32  2  0  0  0  0
 31 35  1  0  0  0  0
 32 33  1  0  0  0  0
 33 34  2  0  0  0  0
 34 35  1  0  0  0  0
 34 36  1  0  0  0  0
 35 39  1  0  0  0  0
 36 37  2  0  0  0  0
 37 38  1  0  0  0  0
 38 39  2  0  0  0  0
M  END
