
 OpenBabel10141417553D

124138  0  0  0  0  0  0  0  0999 V2000
  -28.9745   11.6899    3.4146 C   0  0  0  0  0  0  0  0  0  0  0  0
  -27.7938   11.5940    4.1075 N   0  0  0  0  0  0  0  0  0  0  0  0
  -30.0011   11.1425    4.3574 C   0  0  0  0  0  0  0  0  0  0  0  0
  -28.0054   11.3371    5.4442 C   0  0  0  0  0  0  0  0  0  0  0  0
  -29.3854   10.8757    5.5479 C   0  0  0  0  0  0  0  0  0  0  0  0
  -29.0953   12.2174    2.1799 C   0  0  0  0  0  0  0  0  0  0  0  0
  -27.1555   11.6137    6.4445 C   0  0  0  0  0  0  0  0  0  0  0  0
  -25.9353   12.3127    6.0145 C   0  0  0  0  0  0  0  0  0  0  0  0
  -25.9841   13.2352    5.0974 N   0  0  0  0  0  0  0  0  0  0  0  0
  -24.6155   11.9704    6.5517 C   0  0  0  0  0  0  0  0  0  0  0  0
  -24.6187   13.7626    5.0388 C   0  0  3  0  0  0  0  0  0  0  0  0
  -23.8238   12.8245    5.8883 C   0  0  0  0  0  0  0  0  0  0  0  0
  -24.7278   15.2175    5.5365 C   0  0  0  0  0  0  0  0  0  0  0  0
  -24.9993   16.1140    4.3734 C   0  0  0  0  0  0  0  0  0  0  0  0
  -25.9482   15.7131    3.4647 N   0  0  0  0  0  0  0  0  0  0  0  0
  -24.4755   17.3055    3.8914 C   0  0  0  0  0  0  0  0  0  0  0  0
  -25.5989   16.2588    2.2602 C   0  0  0  0  0  0  0  0  0  0  0  0
  -25.1098   17.5090    2.5978 C   0  0  0  0  0  0  0  0  0  0  0  0
  -25.6992   15.4500    1.0974 C   0  0  0  0  0  0  0  0  0  0  0  0
  -27.9365   12.8793    1.5018 C   0  0  0  0  0  0  0  0  0  0  0  0
  -27.3395   13.9215    2.0064 N   0  0  0  0  0  0  0  0  0  0  0  0
  -27.3789   12.4086    0.1935 C   0  0  0  0  0  0  0  0  0  0  0  0
  -26.4001   14.2991    1.0791 C   0  0  0  0  0  0  0  0  0  0  0  0
  -26.3185   13.2422    0.0911 C   0  0  0  0  0  0  0  0  0  0  0  0
  -25.1226   18.7144    1.7338 C   0  0  0  0  0  0  0  0  0  0  0  0
  -23.3862   18.1541    4.5050 C   0  0  3  0  0  0  0  0  0  0  0  0
  -31.4557   10.9909    3.9865 C   0  0  0  0  0  0  0  0  0  0  0  0
  -32.4237   10.4710    5.0624 C   0  0  0  0  0  0  0  0  0  0  0  0
  -29.8517   10.2598    6.8272 C   0  0  0  0  0  0  0  0  0  0  0  0
  -32.6030   11.3934    6.2569 C   0  0  0  0  0  0  0  0  0  0  0  0
  -32.4672   12.6992    5.9533 O   0  0  0  0  0  0  0  0  0  0  0  0
  -32.9282   11.0529    7.3724 O   0  0  0  0  0  0  0  0  0  0  0  0
  -22.3409   12.8567    5.7408 C   0  0  0  0  0  0  0  0  0  0  0  0
  -24.3518   10.8231    7.4390 C   0  0  0  0  0  0  0  0  0  0  0  0
  -25.0512   13.1406   -0.6924 C   0  0  0  0  0  0  0  0  0  0  0  0
  -27.8764   11.1925   -0.5334 C   0  0  0  0  0  0  0  0  0  0  0  0
  -23.3226   18.1111    6.0366 C   0  0  0  0  0  0  0  0  0  0  0  0
  -27.9230   11.1369   -2.0722 C   0  0  0  0  0  0  0  0  0  0  0  0
  -26.6169   11.1724   -2.8214 C   0  0  0  0  0  0  0  0  0  0  0  0
  -26.1601   12.4437   -2.9576 O   0  0  0  0  0  0  0  0  0  0  0  0
  -26.0084   10.2590   -3.2491 O   0  0  0  0  0  0  0  0  0  0  0  0
  -22.1276   17.9219    3.8058 O   0  0  0  0  0  0  0  0  0  0  0  0
  -18.8083   13.7808    1.5183 C   0  0  0  0  0  0  0  0  0  0  0  0
  -18.0411   14.0675    0.4439 N   0  0  0  0  0  0  0  0  0  0  0  0
  -18.5401   14.9019    2.4305 C   0  0  0  0  0  0  0  0  0  0  0  0
  -16.9724   14.8518    0.7982 C   0  0  0  0  0  0  0  0  0  0  0  0
  -17.3254   15.4202    2.1001 C   0  0  0  0  0  0  0  0  0  0  0  0
  -19.4229   12.6173    1.7745 C   0  0  0  0  0  0  0  0  0  0  0  0
  -15.8427   14.9955    0.1003 C   0  0  0  0  0  0  0  0  0  0  0  0
  -15.7216   14.1563   -1.1124 C   0  0  0  0  0  0  0  0  0  0  0  0
  -16.7114   13.4979   -1.6369 N   0  0  0  0  0  0  0  0  0  0  0  0
  -14.4110   13.9869   -1.7442 C   0  0  0  0  0  0  0  0  0  0  0  0
  -16.1676   12.7999   -2.8021 C   0  0  3  0  0  0  0  0  0  0  0  0
  -14.7069   13.1717   -2.7689 C   0  0  0  0  0  0  0  0  0  0  0  0
  -17.0137   13.1965   -4.0481 C   0  0  0  0  0  0  0  0  0  0  0  0
  -18.4057   12.5913   -4.0169 C   0  0  0  0  0  0  0  0  0  0  0  0
  -18.5602   11.2688   -3.6733 N   0  0  0  0  0  0  0  0  0  0  0  0
  -19.6893   13.1253   -4.1916 C   0  0  0  0  0  0  0  0  0  0  0  0
  -19.8222   11.0806   -3.2011 C   0  0  0  0  0  0  0  0  0  0  0  0
  -20.5959   12.1645   -3.5587 C   0  0  0  0  0  0  0  0  0  0  0  0
  -20.0092   10.0442   -2.2632 C   0  0  0  0  0  0  0  0  0  0  0  0
  -19.4358   11.5016    0.7873 C   0  0  0  0  0  0  0  0  0  0  0  0
  -19.6664   11.6367   -0.4815 N   0  0  0  0  0  0  0  0  0  0  0  0
  -19.3665   10.0891    1.2304 C   0  0  0  0  0  0  0  0  0  0  0  0
  -19.8800   10.3650   -0.9646 C   0  0  0  0  0  0  0  0  0  0  0  0
  -19.8757    9.4533    0.1571 C   0  0  0  0  0  0  0  0  0  0  0  0
  -22.0181   12.2714   -3.1068 C   0  0  0  0  0  0  0  0  0  0  0  0
  -20.0651   14.4928   -4.7775 C   0  0  3  0  0  0  0  0  0  0  0  0
  -19.5025   15.3566    3.4682 C   0  0  0  0  0  0  0  0  0  0  0  0
  -20.4257   16.4941    2.9841 C   0  0  0  0  0  0  0  0  0  0  0  0
  -16.4592   16.3959    2.8193 C   0  0  0  0  0  0  0  0  0  0  0  0
  -21.3513   16.8655    4.1124 C   0  0  0  0  0  0  0  0  0  0  0  0
  -21.3925   16.2324    5.1744 O   0  0  0  0  0  0  0  0  0  0  0  0
  -13.7963   12.5055   -3.7334 C   0  0  0  0  0  0  0  0  0  0  0  0
  -13.1665   14.5524   -1.1750 C   0  0  0  0  0  0  0  0  0  0  0  0
  -20.3580    8.0533   -0.0209 C   0  0  0  0  0  0  0  0  0  0  0  0
  -18.8882    9.6084    2.5520 C   0  0  0  0  0  0  0  0  0  0  0  0
  -18.8984   15.2789   -5.1525 O   0  0  0  0  0  0  0  0  0  0  0  0
  -20.9368   14.2236   -6.0225 C   0  0  0  0  0  0  0  0  0  0  0  0
  -17.3777    9.3373    2.5769 C   0  0  0  0  0  0  0  0  0  0  0  0
  -16.9783    8.2667    1.5985 C   0  0  0  0  0  0  0  0  0  0  0  0
  -16.0556    8.6836    0.7090 O   0  0  0  0  0  0  0  0  0  0  0  0
  -17.4063    7.1273    1.5639 O   0  0  0  0  0  0  0  0  0  0  0  0
  -13.2213   21.4593   -8.9153 C   0  0  0  0  0  0  0  0  0  0  0  0
  -14.0251   20.8972   -9.8923 N   0  0  0  0  0  0  0  0  0  0  0  0
  -13.8338   22.7485   -8.5817 C   0  0  0  0  0  0  0  0  0  0  0  0
  -15.2292   21.5717   -9.9443 C   0  0  0  0  0  0  0  0  0  0  0  0
  -15.0146   22.8431   -9.2564 C   0  0  0  0  0  0  0  0  0  0  0  0
  -12.2274   20.7443   -8.3612 C   0  0  0  0  0  0  0  0  0  0  0  0
  -16.4221   21.0570  -10.2756 C   0  0  0  0  0  0  0  0  0  0  0  0
  -16.4771   19.5927  -10.1317 C   0  0  0  0  0  0  0  0  0  0  0  0
  -16.0729   19.0317   -9.0281 N   0  0  0  0  0  0  0  0  0  0  0  0
  -16.9694   18.7104  -11.1848 C   0  0  0  0  0  0  0  0  0  0  0  0
  -16.3873   17.5991   -9.1702 C   0  0  3  0  0  0  0  0  0  0  0  0
  -16.9275   17.5153  -10.5727 C   0  0  0  0  0  0  0  0  0  0  0  0
  -17.3757   17.1492   -8.0592 C   0  0  0  0  0  0  0  0  0  0  0  0
  -17.0463   17.6049   -6.6505 C   0  0  0  0  0  0  0  0  0  0  0  0
  -15.9977   18.4642   -6.4582 N   0  0  0  0  0  0  0  0  0  0  0  0
  -17.6897   17.4409   -5.4134 C   0  0  0  0  0  0  0  0  0  0  0  0
  -15.8631   18.8161   -5.1499 C   0  0  0  0  0  0  0  0  0  0  0  0
  -16.8999   18.2265   -4.4527 C   0  0  0  0  0  0  0  0  0  0  0  0
  -14.8935   19.8185   -4.8624 C   0  0  0  0  0  0  0  0  0  0  0  0
  -12.4691   20.1759   -7.0043 C   0  0  0  0  0  0  0  0  0  0  0  0
  -13.1378   20.7618   -6.0559 N   0  0  0  0  0  0  0  0  0  0  0  0
  -12.1124   18.7522   -6.7305 C   0  0  0  0  0  0  0  0  0  0  0  0
  -13.6293   19.7162   -5.3085 C   0  0  0  0  0  0  0  0  0  0  0  0
  -12.8763   18.5189   -5.6449 C   0  0  0  0  0  0  0  0  0  0  0  0
  -17.0939   18.5199   -3.0052 C   0  0  0  0  0  0  0  0  0  0  0  0
  -19.0398   16.7188   -5.1806 C   0  0  3  0  0  0  0  0  0  0  0  0
  -13.0923   23.7550   -7.7485 C   0  0  0  0  0  0  0  0  0  0  0  0
  -13.3530   25.2263   -8.0770 C   0  0  0  0  0  0  0  0  0  0  0  0
  -16.0402   23.9257   -9.2846 C   0  0  0  0  0  0  0  0  0  0  0  0
  -12.9737   25.5691   -9.4804 C   0  0  0  0  0  0  0  0  0  0  0  0
  -13.9500   25.4879  -10.3777 O   0  0  0  0  0  0  0  0  0  0  0  0
  -11.8391   25.8831   -9.8329 O   0  0  0  0  0  0  0  0  0  0  0  0
  -17.2603   16.1684  -11.1024 C   0  0  0  0  0  0  0  0  0  0  0  0
  -17.2895   19.1103  -12.5720 C   0  0  0  0  0  0  0  0  0  0  0  0
  -12.9466   17.2970   -4.7770 C   0  0  0  0  0  0  0  0  0  0  0  0
  -11.1386   17.8246   -7.3901 C   0  0  0  0  0  0  0  0  0  0  0  0
  -20.0431   17.1161   -6.2732 C   0  0  0  0  0  0  0  0  0  0  0  0
  -10.0984   18.4065   -8.3497 C   0  0  0  0  0  0  0  0  0  0  0  0
   -9.1690   17.3414   -8.8537 C   0  0  0  0  0  0  0  0  0  0  0  0
   -9.8213   16.3969   -9.5591 O   0  0  0  0  0  0  0  0  0  0  0  0
   -7.9615   17.3337   -8.7533 O   0  0  0  0  0  0  0  0  0  0  0  0
  1  6  2  0  0  0  0
  2  1  1  0  0  0  0
  3  1  1  0  0  0  0
  4  2  1  0  0  0  0
  4  7  2  0  0  0  0
  5  3  2  0  0  0  0
  5  4  1  0  0  0  0
  8  7  1  0  0  0  0
  9  8  2  0  0  0  0
 10  8  1  0  0  0  0
 11  9  1  0  0  0  0
 11 13  1  0  0  0  0
 12 10  2  0  0  0  0
 12 11  1  0  0  0  0
 12 33  1  0  0  0  0
 14 13  1  0  0  0  0
 15 14  1  0  0  0  0
 16 14  2  0  0  0  0
 16 26  1  0  0  0  0
 17 15  1  0  0  0  0
 17 19  1  0  0  0  0
 18 16  1  0  0  0  0
 18 17  2  0  0  0  0
 18 25  1  0  0  0  0
 20  6  1  0  0  0  0
 21 20  2  0  0  0  0
 22 20  1  0  0  0  0
 23 21  1  0  0  0  0
 23 19  2  0  0  0  0
 24 22  2  0  0  0  0
 24 23  1  0  0  0  0
 24 35  1  0  0  0  0
 26 37  1  0  0  0  0
 26 42  1  0  0  0  0
 27  3  1  0  0  0  0
 28 27  1  0  0  0  0
 28 30  1  0  0  0  0
 29  5  1  0  0  0  0
 30 31  1  0  0  0  0
 30 32  2  0  0  0  0
 34 10  1  0  0  0  0
 36 22  1  0  0  0  0
 36 38  1  0  0  0  0
 38 39  1  0  0  0  0
 39 40  1  0  0  0  0
 39 41  2  0  0  0  0
 43 48  2  0  0  0  0
 44 43  1  0  0  0  0
 45 43  1  0  0  0  0
 46 44  1  0  0  0  0
 46 49  2  0  0  0  0
 47 45  2  0  0  0  0
 47 46  1  0  0  0  0
 50 49  1  0  0  0  0
 51 50  2  0  0  0  0
 52 50  1  0  0  0  0
 53 51  1  0  0  0  0
 53 55  1  0  0  0  0
 54 52  2  0  0  0  0
 54 53  1  0  0  0  0
 54 74  1  0  0  0  0
 56 55  1  0  0  0  0
 57 56  1  0  0  0  0
 58 56  2  0  0  0  0
 58 68  1  0  0  0  0
 59 57  1  0  0  0  0
 59 61  1  0  0  0  0
 60 58  1  0  0  0  0
 60 59  2  0  0  0  0
 60 67  1  0  0  0  0
 62 48  1  0  0  0  0
 63 62  2  0  0  0  0
 64 62  1  0  0  0  0
 65 63  1  0  0  0  0
 65 61  2  0  0  0  0
 66 64  2  0  0  0  0
 66 65  1  0  0  0  0
 66 76  1  0  0  0  0
 68 78  1  0  0  0  0
 68 79  1  0  0  0  0
 69 45  1  0  0  0  0
 70 69  1  0  0  0  0
 70 72  1  0  0  0  0
 71 47  1  0  0  0  0
 72 73  2  0  0  0  0
 72 42  1  0  0  0  0
 75 52  1  0  0  0  0
 77 64  1  0  0  0  0
 77 80  1  0  0  0  0
 80 81  1  0  0  0  0
 81 82  1  0  0  0  0
 81 83  2  0  0  0  0
 84 89  2  0  0  0  0
 85 84  1  0  0  0  0
 86 84  1  0  0  0  0
 87 85  1  0  0  0  0
 87 90  2  0  0  0  0
 88 86  2  0  0  0  0
 88 87  1  0  0  0  0
 91 90  1  0  0  0  0
 92 91  2  0  0  0  0
 93 91  1  0  0  0  0
 94 92  1  0  0  0  0
 94 96  1  0  0  0  0
 95 93  2  0  0  0  0
 95 94  1  0  0  0  0
 95116  1  0  0  0  0
 97 96  1  0  0  0  0
 98 97  1  0  0  0  0
 99 97  2  0  0  0  0
 99109  1  0  0  0  0
100 98  1  0  0  0  0
100102  1  0  0  0  0
101 99  1  0  0  0  0
101100  2  0  0  0  0
101108  1  0  0  0  0
103 89  1  0  0  0  0
104103  2  0  0  0  0
105103  1  0  0  0  0
106104  1  0  0  0  0
106102  2  0  0  0  0
107105  2  0  0  0  0
107106  1  0  0  0  0
107118  1  0  0  0  0
109 78  1  0  0  0  0
109120  1  0  0  0  0
110 86  1  0  0  0  0
111110  1  0  0  0  0
111113  1  0  0  0  0
112 88  1  0  0  0  0
113114  1  0  0  0  0
113115  2  0  0  0  0
117 93  1  0  0  0  0
119105  1  0  0  0  0
119121  1  0  0  0  0
121122  1  0  0  0  0
122123  1  0  0  0  0
122124  2  0  0  0  0
A   34
R
A   75
R
A  117
R
M  END
