1263
 OpenBabel10141417493D

 51 57  0  0  1  0  0  0  0  0999 V2000
   28.5470   16.4491   -7.4454 F   0  0  0  0  0  0  0  0  0  0  0  0
   26.9785   12.5994   -5.2459 F   0  0  0  0  0  0  0  0  0  0  0  0
   32.1919   16.1727   -5.2188 O   0  0  0  0  0  0  0  0  0  0  0  0
   29.7706   19.2637   -3.0968 O   0  0  0  0  0  0  0  0  0  0  0  0
   15.3325    9.6405    1.0377 O   0  0  0  0  0  0  0  0  0  0  0  0
   19.1043   11.5450   -0.1918 O   0  0  0  0  0  0  0  0  0  0  0  0
   32.6429   17.4137   -7.8368 N   0  0  0  0  0  0  0  0  0  0  0  0
   32.4771   18.7492   -7.7675 N   0  0  0  0  0  0  0  0  0  0  0  0
   24.9068   17.1413   -1.3066 N   0  0  0  0  0  0  0  0  0  0  0  0
   23.9269   15.0436   -3.1127 N   0  0  0  0  0  0  0  0  0  0  0  0
   34.6295   18.2222   -8.2674 N   0  0  0  0  0  0  0  0  0  0  0  0
   17.5173   10.8052   -1.7354 N   0  0  0  0  0  0  0  0  0  0  0  0
   19.1252   12.1121   -2.4880 N   0  0  0  0  0  0  0  0  0  0  0  0
   17.2527   11.0253   -3.0647 N   0  0  0  0  0  0  0  0  0  0  0  0
   31.0604   16.5162   -6.0604 C   0  0  1  0  0  0  0  0  0  0  0  0
   30.5859   17.9122   -5.6015 C   0  0  0  0  0  0  0  0  0  0  0  0
   31.5223   18.3347   -4.4756 C   0  0  3  0  0  0  0  0  0  0  0  0
   32.6552   17.3320   -4.5217 C   0  0  0  0  0  0  0  0  0  0  0  0
   31.5549   16.4955   -7.5388 C   0  0  0  0  0  0  0  0  0  0  0  0
   29.9725   15.4394   -5.8371 C   0  0  0  0  0  0  0  0  0  0  0  0
   30.8398   18.3100   -3.1122 C   0  0  0  0  0  0  0  0  0  0  0  0
   28.7556   15.4821   -6.5414 C   0  0  0  0  0  0  0  0  0  0  0  0
   30.1413   14.3679   -4.9335 C   0  0  0  0  0  0  0  0  0  0  0  0
   27.7438   14.5385   -6.3483 C   0  0  0  0  0  0  0  0  0  0  0  0
   29.1357   13.4077   -4.7427 C   0  0  0  0  0  0  0  0  0  0  0  0
   33.9165   17.1182   -8.2163 C   0  0  0  0  0  0  0  0  0  0  0  0
   28.6146   18.7997   -2.5377 C   0  0  0  0  0  0  0  0  0  0  0  0
   27.9420   13.5094   -5.4431 C   0  0  0  0  0  0  0  0  0  0  0  0
   24.9665   15.7069   -0.9177 C   0  0  0  0  0  0  0  0  0  0  0  0
   23.7001   17.3683   -2.1533 C   0  0  0  0  0  0  0  0  0  0  0  0
   25.0552   14.8064   -2.1776 C   0  0  0  0  0  0  0  0  0  0  0  0
   23.7441   16.4888   -3.4349 C   0  0  0  0  0  0  0  0  0  0  0  0
   26.1216   17.7358   -1.6867 C   0  0  0  0  0  0  0  0  0  0  0  0
   28.5663   17.8515   -1.5277 C   0  0  0  0  0  0  0  0  0  0  0  0
   27.4274   19.3194   -3.0322 C   0  0  0  0  0  0  0  0  0  0  0  0
   33.7179   19.1908   -7.9707 C   0  0  0  0  0  0  0  0  0  0  0  0
   27.3408   17.3241   -1.1226 C   0  0  0  0  0  0  0  0  0  0  0  0
   26.1998   18.7959   -2.6052 C   0  0  0  0  0  0  0  0  0  0  0  0
   22.7520   14.3141   -2.9347 C   0  0  0  0  0  0  0  0  0  0  0  0
   16.7817    9.8563   -0.9217 C   0  0  2  0  0  0  0  0  0  0  0  0
   22.3974   13.7106   -1.7284 C   0  0  0  0  0  0  0  0  0  0  0  0
   21.8818   14.1225   -4.0134 C   0  0  0  0  0  0  0  0  0  0  0  0
   16.1053   10.5747    0.2778 C   0  0  2  0  0  0  0  0  0  0  0  0
   20.3217   12.8418   -2.6505 C   0  0  0  0  0  0  0  0  0  0  0  0
   17.7133    8.7114   -0.4424 C   0  0  0  0  0  0  0  0  0  0  0  0
   21.2046   13.0023   -1.5793 C   0  0  0  0  0  0  0  0  0  0  0  0
   20.6936   13.3891   -3.8790 C   0  0  0  0  0  0  0  0  0  0  0  0
   18.6556   11.5102   -1.3491 C   0  0  0  0  0  0  0  0  0  0  0  0
   18.2171   11.7939   -3.4421 C   0  0  0  0  0  0  0  0  0  0  0  0
   15.1734   11.7072   -0.1577 C   0  0  0  0  0  0  0  0  0  0  0  0
   18.4048    7.9534   -1.5750 C   0  0  0  0  0  0  0  0  0  0  0  0
  1 22  1  0  0  0  0
  2 28  1  0  0  0  0
  3 15  1  0  0  0  0
  3 18  1  0  0  0  0
  4 21  1  0  0  0  0
  4 27  1  0  0  0  0
  6 48  2  0  0  0  0
  7  8  1  0  0  0  0
  7 19  1  0  0  0  0
  7 26  1  0  0  0  0
  8 36  2  0  0  0  0
  9 29  1  0  0  0  0
  9 30  1  0  0  0  0
  9 33  1  0  0  0  0
 10 31  1  0  0  0  0
 10 32  1  0  0  0  0
 10 39  1  0  0  0  0
 11 26  2  0  0  0  0
 11 36  1  0  0  0  0
 12 14  1  0  0  0  0
 12 48  1  0  0  0  0
 13 44  1  0  0  0  0
 13 48  1  0  0  0  0
 13 49  1  0  0  0  0
 14 49  2  0  0  0  0
 15 16  1  0  0  0  0
 15 19  1  6  0  0  0
 15 20  1  0  0  0  0
 16 17  1  0  0  0  0
 17 18  1  0  0  0  0
 17 21  1  0  0  0  0
 20 22  2  0  0  0  0
 20 23  1  0  0  0  0
 22 24  1  0  0  0  0
 23 25  2  0  0  0  0
 24 28  2  0  0  0  0
 25 28  1  0  0  0  0
 27 34  2  0  0  0  0
 27 35  1  0  0  0  0
 29 31  1  0  0  0  0
 30 32  1  0  0  0  0
 33 37  2  0  0  0  0
 33 38  1  0  0  0  0
 34 37  1  0  0  0  0
 35 38  2  0  0  0  0
 39 41  2  0  0  0  0
 39 42  1  0  0  0  0
 40 45  1  1  0  0  0
 40 43  1  0  0  0  0
 40 12  1  0  0  0  0
 41 46  1  0  0  0  0
 42 47  2  0  0  0  0
 43  5  1  1  0  0  0
 43 50  1  0  0  0  0
 44 46  2  0  0  0  0
 44 47  1  0  0  0  0
 45 51  1  0  0  0  0
M  END
