
 OpenBabel10141417593D

 35 37  0  0  1  0  0  0  0  0999 V2000
    3.5842    0.0566    0.5178 O   0  0  0  0  0  0  0  0  0  0  0  0
    2.6974   -0.0157   -0.3229 C   0  0  0  0  0  0  0  0  0  0  0  0
    1.4837    0.5617   -0.1463 O   0  0  0  0  0  0  0  0  0  0  0  0
    2.8275   -0.7456   -1.6726 C   0  0  1  0  0  0  0  0  0  0  0  0
    2.7271    0.2314   -2.7772 N   0  0  0  0  0  0  0  0  0  0  0  0
    1.4995    0.5875   -3.3047 C   0  0  0  0  0  0  0  0  0  0  0  0
    0.4617    0.0902   -2.8762 O   0  0  0  0  0  0  0  0  0  0  0  0
    1.4599    1.6345   -4.3734 C   0  0  0  0  0  0  0  0  0  0  0  0
    0.4797    1.5581   -5.3711 C   0  0  0  0  0  0  0  0  0  0  0  0
    0.3982    2.5426   -6.3725 C   0  0  0  0  0  0  0  0  0  0  0  0
    1.2617    3.6526   -6.3745 C   0  0  0  0  0  0  0  0  0  0  0  0
    2.1869    3.7621   -5.3211 C   0  0  0  0  0  0  0  0  0  0  0  0
    2.3085    2.7468   -4.3500 C   0  0  0  0  0  0  0  0  0  0  0  0
    1.1505    4.6994   -7.4926 C   0  0  3  0  0  0  0  0  0  0  0  0
    0.7794    6.0756   -6.9107 C   0  0  0  0  0  0  0  0  0  0  0  0
    0.6158    7.1318   -7.9678 C   0  0  0  0  0  0  0  0  0  0  0  0
    0.5388    7.9480   -8.8262 C   0  0  0  0  0  0  0  0  0  0  0  0
    2.4227    4.8029   -8.3866 C   0  0  0  0  0  0  0  0  0  0  0  0
    2.8464    3.5697   -9.1470 C   0  0  0  0  0  0  0  0  0  0  0  0
    2.3460    3.3513  -10.3887 N   0  0  0  0  0  0  0  0  0  0  0  0
    2.8433    2.2679  -11.0856 C   0  0  0  0  0  0  0  0  0  0  0  0
    3.7684    1.3845  -10.5181 C   0  0  0  0  0  0  0  0  0  0  0  0
    4.2652    1.6384   -9.3004 N   0  0  0  0  0  0  0  0  0  0  0  0
    3.8230    2.7353   -8.6416 C   0  0  0  0  0  0  0  0  0  0  0  0
    4.2111    0.2909  -11.1322 N   0  0  0  0  0  0  0  0  0  0  0  0
    3.7816    0.0470  -12.3640 C   0  0  0  0  0  0  0  0  0  0  0  0
    2.9775    0.8471  -13.0542 N   0  0  0  0  0  0  0  0  0  0  0  0
    2.5165    1.9326  -12.4064 C   0  0  0  0  0  0  0  0  0  0  0  0
    1.7391    2.7975  -13.1969 N   0  0  0  0  0  0  0  0  0  0  0  0
    4.2509   -1.0955  -12.9789 N   0  0  0  0  0  0  0  0  0  0  0  0
    4.1349   -1.5516   -1.7666 C   0  0  0  0  0  0  0  0  0  0  0  0
    4.1977   -2.7617   -0.8281 C   0  0  0  0  0  0  0  0  0  0  0  0
    3.1013   -3.7628   -1.0926 C   0  0  0  0  0  0  0  0  0  0  0  0
    1.9938   -3.6953   -0.5819 O   0  0  0  0  0  0  0  0  0  0  0  0
    3.4275   -4.7116   -1.9933 O   0  0  0  0  0  0  0  0  0  0  0  0
  1  2  2  0  0  0  0
  2  3  1  0  0  0  0
  4  2  1  1  0  0  0
  4  5  1  0  0  0  0
  4 31  1  0  0  0  0
  5  6  1  0  0  0  0
  6  7  2  0  0  0  0
  6  8  1  0  0  0  0
  8  9  2  0  0  0  0
  8 13  1  0  0  0  0
  9 10  1  0  0  0  0
 10 11  2  0  0  0  0
 11 12  1  0  0  0  0
 11 14  1  0  0  0  0
 12 13  2  0  0  0  0
 14 15  1  0  0  0  0
 14 18  1  0  0  0  0
 15 16  1  0  0  0  0
 16 17  3  0  0  0  0
 18 19  1  0  0  0  0
 19 20  1  0  0  0  0
 19 24  2  0  0  0  0
 20 21  2  0  0  0  0
 21 22  1  0  0  0  0
 21 28  1  0  0  0  0
 22 23  2  0  0  0  0
 22 25  1  0  0  0  0
 23 24  1  0  0  0  0
 25 26  2  0  0  0  0
 26 27  1  0  0  0  0
 26 30  1  0  0  0  0
 27 28  2  0  0  0  0
 28 29  1  0  0  0  0
 31 32  1  0  0  0  0
 32 33  1  0  0  0  0
 33 34  2  0  0  0  0
 33 35  1  0  0  0  0
M  END
