
 OpenBabel10141417493D

 10 10  0  0  0  0  0  0  0  0999 V2000
   -0.6580   -1.2476   -0.0084 C   0  0  0  0  0  0  0  0  0  0  0  0
   -1.3859   -0.0743    0.1007 C   0  0  0  0  0  0  0  0  0  0  0  0
   -0.7256    1.1473    0.0548 C   0  0  0  0  0  0  0  0  0  0  0  0
    0.7197   -1.1746   -0.1612 C   0  0  0  0  0  0  0  0  0  0  0  0
    0.6210    1.2163   -0.0949 N   0  3  0  0  0  0  0  0  0  0  0  0
    1.2513    2.5498   -0.1370 C   0  0  0  0  0  0  0  0  0  0  0  0
    1.3542    0.0726   -0.2031 C   0  0  0  0  0  0  0  0  0  0  0  0
    2.8217    0.1395   -0.3651 C   0  0  0  0  0  0  0  0  0  0  0  0
    3.5450   -0.9281   -0.4851 N   0  0  0  0  0  0  0  0  0  0  0  0
    4.8842   -0.5466   -0.6216 O   0  0  0  0  0  0  0  0  0  0  0  0
  1  2  1  0  0  0  0
  1  4  2  0  0  0  0
  2  3  2  0  0  0  0
  3  5  1  0  0  0  0
  5  7  2  0  0  0  0
  5  6  1  0  0  0  0
  7  4  1  0  0  0  0
  7  8  1  0  0  0  0
  8  9  2  0  0  0  0
  9 10  1  0  0  0  0
M  CHG  1   5   1
M  END
