
 OpenBabel10141417483D

 14 15  0  0  0  0  0  0  0  0999 V2000
    0.2422    1.1030   -0.0316 C   0  0  0  0  0  0  0  0  0  0  0  0
   -1.2131    0.6228    0.2434 C   0  0  2  0  0  0  0  0  0  0  0  0
   -1.4781   -0.7638   -0.4007 C   0  0  0  0  0  0  0  0  0  0  0  0
   -0.5293   -1.8445    0.1504 C   0  0  0  0  0  0  0  0  0  0  0  0
    0.8778   -1.3579    0.1685 C   0  0  0  0  0  0  0  0  0  0  0  0
    1.2073   -0.0219    0.1094 C   0  0  0  0  0  0  0  0  0  0  0  0
    2.8952    0.1699    0.1648 S   0  0  0  0  0  0  0  0  0  0  0  0
    1.9459   -2.2238    0.2587 N   0  0  0  0  0  0  0  0  0  0  0  0
    3.0674   -1.5404    0.2679 C   0  0  0  0  0  0  0  0  0  0  0  0
   -2.2297    1.5658   -0.2579 N   0  0  0  0  0  0  0  0  0  0  0  0
    4.2785   -2.1148    0.3253 N   0  0  0  0  0  0  0  0  0  0  0  0
   -2.1957    2.8588    0.4265 C   0  0  0  0  0  0  0  0  0  0  0  0
   -3.2739    3.7822   -0.1426 C   0  0  0  0  0  0  0  0  0  0  0  0
   -3.2620    5.1348    0.5548 C   0  0  0  0  0  0  0  0  0  0  0  0
  1  2  1  0  0  0  0
  1  6  1  0  0  0  0
  2  3  1  0  0  0  0
  2 10  1  6  0  0  0
  3  4  1  0  0  0  0
  4  5  1  0  0  0  0
  5  8  1  0  0  0  0
  6  5  2  0  0  0  0
  7  6  1  0  0  0  0
  7  9  1  0  0  0  0
  8  9  2  0  0  0  0
  9 11  1  0  0  0  0
 10 12  1  0  0  0  0
 12 13  1  0  0  0  0
 13 14  1  0  0  0  0
M  END
