
 OpenBabel10141417543D

 26 29  0  0  0  0  0  0  0  0999 V2000
    1.0435   -2.0769    0.3184 C   0  0  0  0  0  0  0  0  0  0  0  0
    2.4828   -1.7507    0.5694 C   0  0  0  0  0  0  0  0  0  0  0  0
    3.2181   -2.5164    1.1977 O   0  0  0  0  0  0  0  0  0  0  0  0
    2.7987   -0.5453    0.0381 O   0  0  0  0  0  0  0  0  0  0  0  0
    4.0410   -0.0952    0.2036 C   0  0  0  0  0  0  0  0  0  0  0  0
    4.9528   -0.3052    1.2246 C   0  0  0  0  0  0  0  0  0  0  0  0
    6.2454    0.2338    0.9576 C   0  0  0  0  0  0  0  0  0  0  0  0
    6.2372    0.9485   -0.2158 C   0  0  0  0  0  0  0  0  0  0  0  0
    7.4555    1.6035   -0.7623 C   0  0  0  0  0  0  0  0  0  0  0  0
    8.6975    0.9087   -0.1506 C   0  0  0  0  0  0  0  0  0  0  0  0
    8.6516    0.7556    1.3350 N   0  0  0  0  0  0  0  0  0  0  0  0
    7.4752   -0.0228    1.7819 C   0  0  0  0  0  0  0  0  0  0  0  0
    9.9365    0.1263    1.8251 C   0  0  3  0  0  0  0  0  0  0  0  0
   11.1197    1.1066    1.5908 C   0  0  0  0  0  0  0  0  0  0  0  0
   11.0180    2.3317    1.5861 O   0  0  0  0  0  0  0  0  0  0  0  0
   12.4692    0.4770    1.4096 C   0  0  0  0  0  0  0  0  0  0  0  0
   13.5772    0.8313    2.3757 C   0  0  0  0  0  0  0  0  0  0  0  0
   13.6484    1.3131    0.9570 C   0  0  0  0  0  0  0  0  0  0  0  0
    9.9529   -0.3150    3.2918 C   0  0  0  0  0  0  0  0  0  0  0  0
    9.7588    0.5905    4.3467 C   0  0  0  0  0  0  0  0  0  0  0  0
    9.8307    0.1638    5.6804 C   0  0  0  0  0  0  0  0  0  0  0  0
   10.0748   -1.1755    5.9845 C   0  0  0  0  0  0  0  0  0  0  0  0
   10.2688   -2.0876    4.9518 C   0  0  0  0  0  0  0  0  0  0  0  0
   10.2242   -1.6511    3.6262 C   0  0  0  0  0  0  0  0  0  0  0  0
   10.4689   -2.5454    2.6573 F   0  0  0  0  0  0  0  0  0  0  0  0
    4.7204    0.9623   -0.9769 S   0  0  0  0  0  0  0  0  0  0  0  0
  1  2  1  0  0  0  0
  2  3  2  0  0  0  0
  2  4  1  0  0  0  0
  4  5  1  0  0  0  0
  5  6  2  0  0  0  0
  5 26  1  0  0  0  0
  6  7  1  0  0  0  0
  7  8  2  0  0  0  0
  7 12  1  0  0  0  0
  8  9  1  0  0  0  0
  8 26  1  0  0  0  0
  9 10  1  0  0  0  0
 10 11  1  0  0  0  0
 11 12  1  0  0  0  0
 11 13  1  0  0  0  0
 13 14  1  0  0  0  0
 13 19  1  0  0  0  0
 14 15  2  0  0  0  0
 14 16  1  0  0  0  0
 16 17  1  0  0  0  0
 16 18  1  0  0  0  0
 17 18  1  0  0  0  0
 19 20  2  0  0  0  0
 19 24  1  0  0  0  0
 20 21  1  0  0  0  0
 21 22  2  0  0  0  0
 22 23  1  0  0  0  0
 23 24  2  0  0  0  0
 24 25  1  0  0  0  0
M  END
