457
 OpenBabel10141417513D

 28 31  0  0  0  0  0  0  0  0999 V2000
    3.4939    0.2011   -0.7314 O   0  0  0  0  0  0  0  0  0  0  0  0
    2.9075    2.8440   -2.9896 O   0  0  0  0  0  0  0  0  0  0  0  0
    4.1267   10.4841    2.5946 O   0  0  0  0  0  0  0  0  0  0  0  0
    6.1661   10.1874    4.2453 O   0  0  0  0  0  0  0  0  0  0  0  0
    3.0563    3.4450    2.2330 N   0  0  0  0  0  0  0  0  0  0  0  0
    3.8963    2.4163   -0.3096 N   0  0  0  0  0  0  0  0  0  0  0  0
    3.4876    5.7487    2.3511 N   0  0  0  0  0  0  0  0  0  0  0  0
    4.8332    4.2521    3.5633 N   0  0  0  0  0  0  0  0  0  0  0  0
    6.5534    4.9651    4.9339 N   0  0  0  0  0  0  0  0  0  0  0  0
    3.7538    2.1421    2.1636 C   0  0  0  0  0  0  0  0  0  0  0  0
    2.3098    3.7767    1.0041 C   0  0  0  0  0  0  0  0  0  0  0  0
    4.6500    2.0605    0.9051 C   0  0  0  0  0  0  0  0  0  0  0  0
    3.2535    3.7402   -0.2180 C   0  0  0  0  0  0  0  0  0  0  0  0
    3.8198    4.5047    2.7268 C   0  0  0  0  0  0  0  0  0  0  0  0
    3.3525    1.3730   -1.0767 C   0  0  0  0  0  0  0  0  0  0  0  0
    4.1800    6.7808    2.8300 C   0  0  0  0  0  0  0  0  0  0  0  0
    2.5962    1.7193   -2.2699 C   0  0  0  0  0  0  0  0  0  0  0  0
    5.2382    6.6200    3.7129 C   0  0  0  0  0  0  0  0  0  0  0  0
    5.5152    5.2953    4.0520 C   0  0  0  0  0  0  0  0  0  0  0  0
    3.8208    8.0606    2.4346 C   0  0  0  0  0  0  0  0  0  0  0  0
    5.9365    7.7527    4.1902 C   0  0  0  0  0  0  0  0  0  0  0  0
    1.5615    1.0533   -2.9026 C   0  0  0  0  0  0  0  0  0  0  0  0
    4.4763    9.1969    2.9212 C   0  0  0  0  0  0  0  0  0  0  0  0
    5.5540    9.0404    3.8088 C   0  0  0  0  0  0  0  0  0  0  0  0
    1.1793    1.8460   -4.0120 C   0  0  0  0  0  0  0  0  0  0  0  0
    2.0317    2.9231   -4.0222 C   0  0  0  0  0  0  0  0  0  0  0  0
    3.0511   10.6576    1.6796 C   0  0  0  0  0  0  0  0  0  0  0  0
    7.2538   10.0399    5.1494 C   0  0  0  0  0  0  0  0  0  0  0  0
  1 15  2  0  0  0  0
  2 17  1  0  0  0  0
  2 26  1  0  0  0  0
  3 23  1  0  0  0  0
  3 27  1  0  0  0  0
  4 24  1  0  0  0  0
  4 28  1  0  0  0  0
  5 10  1  0  0  0  0
  5 11  1  0  0  0  0
  5 14  1  0  0  0  0
  6 12  1  0  0  0  0
  6 13  1  0  0  0  0
  6 15  1  0  0  0  0
  7 14  2  0  0  0  0
  7 16  1  0  0  0  0
  8 14  1  0  0  0  0
  8 19  2  0  0  0  0
  9 19  1  0  0  0  0
 10 12  1  0  0  0  0
 11 13  1  0  0  0  0
 15 17  1  0  0  0  0
 16 18  1  0  0  0  0
 16 20  2  0  0  0  0
 17 22  2  0  0  0  0
 18 19  1  0  0  0  0
 18 21  2  0  0  0  0
 20 23  1  0  0  0  0
 21 24  1  0  0  0  0
 22 25  1  0  0  0  0
 23 24  2  0  0  0  0
 25 26  2  0  0  0  0
M  END
