1058
 OpenBabel10141417523D

 23 26  0  0  1  0  0  0  0  0999 V2000
    2.3259   -0.4530   -1.6127 O   0  0  0  0  0  0  0  0  0  0  0  0
    1.4733    4.1137   -0.2510 O   0  0  0  0  0  0  0  0  0  0  0  0
    2.4438    4.4583   -2.3111 N   0  0  0  0  0  0  0  0  0  0  0  0
    2.5879    1.5894   -2.5878 N   0  0  0  0  0  0  0  0  0  0  0  0
    3.2552    3.8710   -3.3904 C   0  0  3  0  0  0  0  0  0  0  0  0
    2.3571   -0.4639   -4.0248 C   0  0  0  0  0  0  0  0  0  0  0  0
    2.6726    2.4835   -3.7516 C   0  0  0  0  0  0  0  0  0  0  0  0
    1.5128   -1.7510   -3.9989 C   0  0  0  0  0  0  0  0  0  0  0  0
    3.7677   -0.7264   -4.5758 C   0  0  0  0  0  0  0  0  0  0  0  0
    2.4062    0.2137   -2.6453 C   0  0  0  0  0  0  0  0  0  0  0  0
    2.2250   -2.9546   -3.3833 C   0  0  0  0  0  0  0  0  0  0  0  0
    4.4556   -1.9426   -3.9573 C   0  0  0  0  0  0  0  0  0  0  0  0
    3.4643    4.7766   -4.5983 C   0  0  0  0  0  0  0  0  0  0  0  0
    1.7329    5.7095   -2.5294 C   0  0  0  0  0  0  0  0  0  0  0  0
    2.5926    2.2196   -1.2563 C   0  0  0  0  0  0  0  0  0  0  0  0
    3.5856   -3.1909   -4.0226 C   0  0  0  0  0  0  0  0  0  0  0  0
    2.5617    6.7324   -3.2865 C   0  0  0  0  0  0  0  0  0  0  0  0
    2.0830    3.6662   -1.2248 C   0  0  0  0  0  0  0  0  0  0  0  0
    3.1083    6.1383   -4.5564 C   0  0  0  0  0  0  0  0  0  0  0  0
    4.0853    4.2887   -5.7627 C   0  0  0  0  0  0  0  0  0  0  0  0
    3.3248    6.9617   -5.6713 C   0  0  0  0  0  0  0  0  0  0  0  0
    4.2866    5.1111   -6.8725 C   0  0  0  0  0  0  0  0  0  0  0  0
    3.8969    6.4444   -6.8304 C   0  0  0  0  0  0  0  0  0  0  0  0
  1 10  2  0  0  0  0
  2 18  2  0  0  0  0
  3  5  1  0  0  0  0
  3 14  1  0  0  0  0
  3 18  1  0  0  0  0
  4  7  1  0  0  0  0
  4 10  1  0  0  0  0
  4 15  1  0  0  0  0
  5  7  1  0  0  0  0
  5 13  1  0  0  0  0
  6  8  1  0  0  0  0
  6  9  1  0  0  0  0
  6 10  1  0  0  0  0
  8 11  1  0  0  0  0
  9 12  1  0  0  0  0
 11 16  1  0  0  0  0
 12 16  1  0  0  0  0
 13 19  1  0  0  0  0
 13 20  2  0  0  0  0
 14 17  1  0  0  0  0
 15 18  1  0  0  0  0
 17 19  1  0  0  0  0
 19 21  2  0  0  0  0
 20 22  1  0  0  0  0
 21 23  1  0  0  0  0
 22 23  2  0  0  0  0
M  END
