1130
 OpenBabel10141417493D

 35 38  0  0  1  0  0  0  0  0999 V2000
   -2.8513    3.7625    8.7812 O   0  0  0  0  0  0  0  0  0  0  0  0
   -2.6006   -0.7023    5.8148 O   0  0  0  0  0  0  0  0  0  0  0  0
   -4.1666    4.2714    5.3974 O   0  0  0  0  0  0  0  0  0  0  0  0
   -5.6344    6.2432    6.6005 O   0  0  0  0  0  0  0  0  0  0  0  0
   -3.2861    2.4588   10.4909 O   0  0  0  0  0  0  0  0  0  0  0  0
   -2.1448    1.0662   -1.1039 O   0  0  0  0  0  0  0  0  0  0  0  0
   -4.7681    2.5516    8.7417 O   0  0  0  0  0  0  0  0  0  0  0  0
   -6.4742    6.3352    8.7298 O   0  0  0  0  0  0  0  0  0  0  0  0
   -2.3799    2.3381    6.7384 C   0  0  3  0  0  0  0  0  0  0  0  0
   -1.3999    2.7508    5.6221 C   0  0  3  0  0  0  0  0  0  0  0  0
   -0.8456    1.5741    4.8140 C   0  0  3  0  0  0  0  0  0  0  0  0
   -2.0742    0.9475    4.0707 C   0  0  3  0  0  0  0  0  0  0  0  0
   -2.7253    3.7857    7.3519 C   0  0  3  0  0  0  0  0  0  0  0  0
   -3.5486    1.5046    6.1276 C   0  0  0  0  0  0  0  0  0  0  0  0
   -0.4406    3.6974    6.3213 C   0  0  0  0  0  0  0  0  0  0  0  0
   -3.1102    0.4238    5.1090 C   0  0  3  0  0  0  0  0  0  0  0  0
   -1.6774   -0.0481    2.9225 C   0  0  3  0  0  0  0  0  0  0  0  0
   -1.3907    4.5932    7.1207 C   0  0  0  0  0  0  0  0  0  0  0  0
    0.2662    2.0691    3.8783 C   0  0  0  0  0  0  0  0  0  0  0  0
   -1.6807    1.4254    7.7950 C   0  0  0  0  0  0  0  0  0  0  0  0
    0.6481    1.0441    2.8268 C   0  0  0  0  0  0  0  0  0  0  0  0
   -0.5954    0.6450    2.0826 C   0  0  0  0  0  0  0  0  0  0  0  0
   -3.8355    4.5772    6.5482 C   0  0  0  0  0  0  0  0  0  0  0  0
   -1.1357   -1.4021    3.4203 C   0  0  0  0  0  0  0  0  0  0  0  0
   -2.9080   -0.3532    2.0708 C   0  0  0  0  0  0  0  0  0  0  0  0
   -0.7473    0.9871    0.7916 C   0  0  0  0  0  0  0  0  0  0  0  0
   -4.3570    5.8802    7.1425 C   0  0  0  0  0  0  0  0  0  0  0  0
   -3.0597   -0.0098    0.7843 C   0  0  0  0  0  0  0  0  0  0  0  0
   -1.9966    0.7099    0.0582 C   0  0  0  0  0  0  0  0  0  0  0  0
   -3.7664    2.9399    9.3244 C   0  0  0  0  0  0  0  0  0  0  0  0
   -6.6153    6.4365    7.5180 C   0  0  0  0  0  0  0  0  0  0  0  0
   -3.8194    1.1931   10.9174 C   0  0  0  0  0  0  0  0  0  0  0  0
   -7.9389    6.7287    6.8669 C   0  0  0  0  0  0  0  0  0  0  0  0
   -5.1566    1.3741   11.5985 C   0  0  0  0  0  0  0  0  0  0  0  0
   -8.7887    5.4765    6.9368 C   0  0  0  0  0  0  0  0  0  0  0  0
  1 13  1  0  0  0  0
  1 30  1  0  0  0  0
  2 16  1  0  0  0  0
  3 23  2  0  0  0  0
  4 27  1  0  0  0  0
  4 31  1  0  0  0  0
  5 30  1  0  0  0  0
  5 32  1  0  0  0  0
  6 29  2  0  0  0  0
  7 30  2  0  0  0  0
  8 31  2  0  0  0  0
  9 10  1  0  0  0  0
  9 13  1  0  0  0  0
  9 14  1  0  0  0  0
  9 20  1  0  0  0  0
 10 11  1  0  0  0  0
 10 15  1  0  0  0  0
 11 12  1  0  0  0  0
 11 19  1  0  0  0  0
 12 16  1  0  0  0  0
 12 17  1  0  0  0  0
 13 18  1  0  0  0  0
 13 23  1  0  0  0  0
 14 16  1  0  0  0  0
 15 18  1  0  0  0  0
 17 22  1  0  0  0  0
 17 24  1  0  0  0  0
 17 25  1  0  0  0  0
 19 21  1  0  0  0  0
 21 22  1  0  0  0  0
 22 26  2  0  0  0  0
 23 27  1  0  0  0  0
 25 28  2  0  0  0  0
 26 29  1  0  0  0  0
 28 29  1  0  0  0  0
 31 33  1  0  0  0  0
 32 34  1  0  0  0  0
 33 35  1  0  0  0  0
M  END
