860
 OpenBabel10141417503D

 26 29  0  0  1  0  0  0  0  0999 V2000
    3.0332   -8.6462  -16.3413 O   0  0  0  0  0  0  0  0  0  0  0  0
    1.7005   -6.7105  -11.0237 O   0  0  0  0  0  0  0  0  0  0  0  0
    0.8717   -5.8673  -16.2807 O   0  0  0  0  0  0  0  0  0  0  0  0
    0.0978   -8.7994  -17.1175 O   0  0  0  0  0  0  0  0  0  0  0  0
    5.2715   -7.3246   -7.4057 O   0  0  0  0  0  0  0  0  0  0  0  0
    3.3182   -7.1410  -14.3876 C   0  0  1  0  0  0  0  0  0  0  0  0
    3.8180   -5.6777  -14.4288 C   0  0  2  0  0  0  0  0  0  0  0  0
    4.4684   -5.1246  -13.1500 C   0  0  1  0  0  0  0  0  0  0  0  0
    3.4829   -5.3001  -11.9380 C   0  0  2  0  0  0  0  0  0  0  0  0
    2.8002   -7.3190  -15.8667 C   0  0  1  0  0  0  0  0  0  0  0  0
    2.2797   -7.1996  -13.2589 C   0  0  0  0  0  0  0  0  0  0  0  0
    4.5895   -5.5987  -15.7344 C   0  0  0  0  0  0  0  0  0  0  0  0
    2.8348   -6.7220  -11.8980 C   0  0  2  0  0  0  0  0  0  0  0  0
    4.1416   -4.8267  -10.5790 C   0  0  1  0  0  0  0  0  0  0  0  0
    3.6895   -6.3629  -16.7150 C   0  0  0  0  0  0  0  0  0  0  0  0
    5.9112   -5.6041  -12.9012 C   0  0  0  0  0  0  0  0  0  0  0  0
    4.3814   -8.2318  -14.1019 C   0  0  0  0  0  0  0  0  0  0  0  0
    6.4894   -5.1683  -11.5616 C   0  0  0  0  0  0  0  0  0  0  0  0
    5.5247   -5.4628  -10.4452 C   0  0  0  0  0  0  0  0  0  0  0  0
    1.2926   -6.9976  -16.0224 C   0  0  0  0  0  0  0  0  0  0  0  0
    4.2897   -3.2823  -10.5710 C   0  0  0  0  0  0  0  0  0  0  0  0
    3.2729   -5.1319   -9.3692 C   0  0  0  0  0  0  0  0  0  0  0  0
    5.8810   -6.2582   -9.4203 C   0  0  0  0  0  0  0  0  0  0  0  0
    0.3202   -8.1625  -15.8696 C   0  0  0  0  0  0  0  0  0  0  0  0
    3.6281   -5.9163   -8.3426 C   0  0  0  0  0  0  0  0  0  0  0  0
    4.9520   -6.5625   -8.3133 C   0  0  0  0  0  0  0  0  0  0  0  0
  3 20  2  0  0  0  0
  4 24  1  0  0  0  0
  5 26  2  0  0  0  0
  6  7  1  0  0  0  0
  6 10  1  0  0  0  0
  6 11  1  0  0  0  0
  6 17  1  6  0  0  0
  7  8  1  0  0  0  0
  7 12  1  1  0  0  0
  8 16  1  1  0  0  0
  9  8  1  1  0  0  0
  9 13  1  0  0  0  0
  9 14  1  0  0  0  0
 10 15  1  0  0  0  0
 10  1  1  6  0  0  0
 10 20  1  0  0  0  0
 11 13  1  0  0  0  0
 12 15  1  0  0  0  0
 13  2  1  1  0  0  0
 14 19  1  0  0  0  0
 14 22  1  0  0  0  0
 14 21  1  6  0  0  0
 16 18  1  0  0  0  0
 18 19  1  0  0  0  0
 19 23  2  0  0  0  0
 20 24  1  0  0  0  0
 22 25  2  0  0  0  0
 23 26  1  0  0  0  0
 25 26  1  0  0  0  0
M  END
