230
 OpenBabel10141417483D

 11 10  0  0  1  0  0  0  0  0999 V2000
    7.3874   -0.4013   -1.9862 O   0  0  0  0  0  0  0  0  0  0  0  0
    7.3276    0.0039    0.2278 O   0  0  0  0  0  0  0  0  0  0  0  0
    5.3233    3.2875   -0.1557 N   0  0  0  0  0  0  0  0  0  0  0  0
    4.5222    0.9289    0.1080 C   0  0  1  0  0  0  0  0  0  0  0  0
    3.0321    1.2765   -0.2137 C   0  0  0  0  0  0  0  0  0  0  0  0
    2.1294    0.1754   -0.8101 C   0  0  0  0  0  0  0  0  0  0  0  0
    5.3308    0.4676   -1.1284 C   0  0  0  0  0  0  0  0  0  0  0  0
    5.1909    2.1611    0.7689 C   0  0  0  0  0  0  0  0  0  0  0  0
    1.9846   -1.0313    0.1157 C   0  0  0  0  0  0  0  0  0  0  0  0
    0.7381    0.7494   -1.1364 C   0  0  0  0  0  0  0  0  0  0  0  0
    6.7685    0.0225   -0.8485 C   0  0  0  0  0  0  0  0  0  0  0  0
  1 11  1  0  0  0  0
  2 11  2  0  0  0  0
  3  8  1  0  0  0  0
  4  8  1  6  0  0  0
  4  7  1  0  0  0  0
  4  5  1  0  0  0  0
  5  6  1  0  0  0  0
  6  9  1  0  0  0  0
  6 10  1  0  0  0  0
  7 11  1  0  0  0  0
M  END
