794
 OpenBabel10141419013D

 16 17  0  0  0  0  0  0  0  0999 V2000
    2.1151   -0.5136   -1.3867 O   0  0  0  0  0  0  0  0  0  0  0  0
    5.4918    1.9472    0.7810 O   0  0  0  0  0  0  0  0  0  0  0  0
    2.8590   -1.0373    0.6573 N   0  0  0  0  0  0  0  0  0  0  0  0
    4.5016    0.1799    1.7327 N   0  0  0  0  0  0  0  0  0  0  0  0
    3.3351    1.2533   -0.1844 C   0  0  0  0  0  0  0  0  0  0  0  0
    3.8076    1.8023   -1.5610 C   0  0  0  0  0  0  0  0  0  0  0  0
    2.2642    2.2377    0.3767 C   0  0  0  0  0  0  0  0  0  0  0  0
    2.7332   -0.1578   -0.3816 C   0  0  0  0  0  0  0  0  0  0  0  0
    4.5419    1.1620    0.7813 C   0  0  0  0  0  0  0  0  0  0  0  0
    3.3418   -0.6160    1.9240 C   0  0  0  0  0  0  0  0  0  0  0  0
    4.8731    0.9522   -2.2572 C   0  0  0  0  0  0  0  0  0  0  0  0
    0.8973    2.0931    0.0689 C   0  0  0  0  0  0  0  0  0  0  0  0
    2.6322    3.3431    1.1694 C   0  0  0  0  0  0  0  0  0  0  0  0
   -0.0593    2.9808    0.5744 C   0  0  0  0  0  0  0  0  0  0  0  0
    1.6750    4.2294    1.6735 C   0  0  0  0  0  0  0  0  0  0  0  0
    0.3284    4.0441    1.3827 C   0  0  0  0  0  0  0  0  0  0  0  0
  1  8  2  0  0  0  0
  2  9  2  0  0  0  0
  3  8  1  0  0  0  0
  3 10  1  0  0  0  0
  4  9  1  0  0  0  0
  4 10  1  0  0  0  0
  5  6  1  0  0  0  0
  5  7  1  0  0  0  0
  5  8  1  0  0  0  0
  5  9  1  0  0  0  0
  6 11  1  0  0  0  0
  7 12  2  0  0  0  0
  7 13  1  0  0  0  0
 12 14  1  0  0  0  0
 13 15  2  0  0  0  0
 14 16  2  0  0  0  0
 15 16  1  0  0  0  0
M  END
