1087
 OpenBabel10141417513D

 19 20  0  0  1  0  0  0  0  0999 V2000
   -0.9956    2.1996   -0.4725 O   0  0  0  0  0  0  0  0  0  0  0  0
   -0.0667   -2.5721   -0.7408 N   0  0  0  0  0  0  0  0  0  0  0  0
   -1.3026   -5.4981    2.8613 N   0  0  0  0  0  0  0  0  0  0  0  0
   -2.0202   -2.7480   -2.8088 N   0  0  0  0  0  0  0  0  0  0  0  0
    0.9162   -2.5360    0.3554 C   0  0  3  0  0  0  0  0  0  0  0  0
    1.4431   -3.9541    0.6775 C   0  0  0  0  0  0  0  0  0  0  0  0
    0.3927   -4.9599    1.1590 C   0  0  0  0  0  0  0  0  0  0  0  0
    2.1378   -1.6813   -0.0418 C   0  0  0  0  0  0  0  0  0  0  0  0
   -0.8481   -1.4694   -1.1257 C   0  0  0  0  0  0  0  0  0  0  0  0
   -0.2873   -4.5325    2.4588 C   0  0  0  0  0  0  0  0  0  0  0  0
   -1.7833   -1.5601   -2.1858 C   0  0  0  0  0  0  0  0  0  0  0  0
   -0.6092   -0.1941   -0.5860 C   0  0  0  0  0  0  0  0  0  0  0  0
   -2.4435   -0.3822   -2.6011 C   0  0  0  0  0  0  0  0  0  0  0  0
   -1.2590    0.9556   -0.9790 C   0  0  0  0  0  0  0  0  0  0  0  0
   -2.2229    0.8624   -1.9715 C   0  0  0  0  0  0  0  0  0  0  0  0
   -3.3025   -0.4242   -3.7133 C   0  0  0  0  0  0  0  0  0  0  0  0
   -3.4797   -1.6223   -4.3871 C   0  0  0  0  0  0  0  0  0  0  0  0
   -2.8379   -2.7386   -3.8930 C   0  0  0  0  0  0  0  0  0  0  0  0
    0.1239    2.2667    0.4182 C   0  0  0  0  0  0  0  0  0  0  0  0
  1 14  1  0  0  0  0
  1 19  1  0  0  0  0
  2  5  1  0  0  0  0
  2  9  1  0  0  0  0
  3 10  1  0  0  0  0
  4 11  1  0  0  0  0
  4 18  2  0  0  0  0
  5  6  1  0  0  0  0
  5  8  1  0  0  0  0
  6  7  1  0  0  0  0
  7 10  1  0  0  0  0
  9 11  2  0  0  0  0
  9 12  1  0  0  0  0
 11 13  1  0  0  0  0
 12 14  2  0  0  0  0
 13 15  2  0  0  0  0
 13 16  1  0  0  0  0
 14 15  1  0  0  0  0
 16 17  2  0  0  0  0
 17 18  1  0  0  0  0
M  END
