1032
 OpenBabel10141417493D

 19 19  0  0  0  0  0  0  0  0999 V2000
    1.9953    0.2913   -1.0892 S   0  0  0  0  0  0  0  0  0  0  0  0
    2.4427    0.6489   -2.4348 O   0  0  0  0  0  0  0  0  0  0  0  0
    1.4610   -1.0300   -0.8125 O   0  0  0  0  0  0  0  0  0  0  0  0
    7.7358    1.0584    2.4904 O   0  0  0  0  0  0  0  0  0  0  0  0
    6.1931    1.8163    3.9543 O   0  0  0  0  0  0  0  0  0  0  0  0
    0.8654    1.4931   -0.5602 N   0  0  0  0  0  0  0  0  0  0  0  0
    1.0384    2.8481   -1.1941 C   0  0  0  0  0  0  0  0  0  0  0  0
   -0.5697    1.0212   -0.5849 C   0  0  0  0  0  0  0  0  0  0  0  0
    2.3608    3.5240   -0.8803 C   0  0  0  0  0  0  0  0  0  0  0  0
   -1.5342    2.0855   -0.0361 C   0  0  0  0  0  0  0  0  0  0  0  0
    3.3678    0.5080    0.0382 C   0  0  0  0  0  0  0  0  0  0  0  0
    2.4299    4.9206   -1.4851 C   0  0  0  0  0  0  0  0  0  0  0  0
   -2.9868    1.6508    0.0089 C   0  0  0  0  0  0  0  0  0  0  0  0
    4.6492    0.8192   -0.4401 C   0  0  0  0  0  0  0  0  0  0  0  0
    3.1294    0.4066    1.4095 C   0  0  0  0  0  0  0  0  0  0  0  0
    5.6840    1.0850    0.4675 C   0  0  0  0  0  0  0  0  0  0  0  0
    4.1614    0.6725    2.3112 C   0  0  0  0  0  0  0  0  0  0  0  0
    5.4409    1.0134    1.8472 C   0  0  0  0  0  0  0  0  0  0  0  0
    6.4733    1.3490    2.8632 C   0  0  0  0  0  0  0  0  0  0  0  0
  1  2  2  0  0  0  0
  1  3  2  0  0  0  0
  1  6  1  0  0  0  0
  1 11  1  0  0  0  0
  4 19  1  0  0  0  0
  5 19  2  0  0  0  0
  6  7  1  0  0  0  0
  6  8  1  0  0  0  0
  7  9  1  0  0  0  0
  8 10  1  0  0  0  0
  9 12  1  0  0  0  0
 10 13  1  0  0  0  0
 11 14  2  0  0  0  0
 11 15  1  0  0  0  0
 14 16  1  0  0  0  0
 15 17  2  0  0  0  0
 16 18  2  0  0  0  0
 17 18  1  0  0  0  0
 18 19  1  0  0  0  0
M  END
