1035
 OpenBabel10141417493D

 17 17  0  0  0  0  0  0  0  0999 V2000
    2.3189   -0.7474   -1.0233 O   0  0  0  0  0  0  0  0  0  0  0  0
    3.1608    4.2098    0.2642 N   0  0  0  0  0  0  0  0  0  0  0  0
    3.1692    1.2075   -0.1615 N   0  0  0  0  0  0  0  0  0  0  0  0
    8.1146   -2.6996    0.9156 N   0  0  0  0  0  0  0  0  0  0  0  0
    2.5234    3.5054   -0.8701 C   0  0  0  0  0  0  0  0  0  0  0  0
    3.5786    5.5821   -0.0864 C   0  0  0  0  0  0  0  0  0  0  0  0
    2.3747    4.1955    1.5111 C   0  0  0  0  0  0  0  0  0  0  0  0
    2.0704    2.0543   -0.5927 C   0  0  0  0  0  0  0  0  0  0  0  0
    4.6187    5.6404   -1.2035 C   0  0  0  0  0  0  0  0  0  0  0  0
    0.9675    4.7886    1.4731 C   0  0  0  0  0  0  0  0  0  0  0  0
    3.2061   -0.1452   -0.4152 C   0  0  0  0  0  0  0  0  0  0  0  0
    4.4297   -0.8707    0.0323 C   0  0  0  0  0  0  0  0  0  0  0  0
    4.8565   -1.9862   -0.6974 C   0  0  0  0  0  0  0  0  0  0  0  0
    5.1905   -0.4384    1.1247 C   0  0  0  0  0  0  0  0  0  0  0  0
    6.0608   -2.6228   -0.3740 C   0  0  0  0  0  0  0  0  0  0  0  0
    6.3894   -1.0857    1.4436 C   0  0  0  0  0  0  0  0  0  0  0  0
    6.8259   -2.1945    0.7138 C   0  0  0  0  0  0  0  0  0  0  0  0
  1 11  2  0  0  0  0
  2  5  1  0  0  0  0
  2  6  1  0  0  0  0
  2  7  1  0  0  0  0
  3  8  1  0  0  0  0
  3 11  1  0  0  0  0
  4 17  1  0  0  0  0
  5  8  1  0  0  0  0
  6  9  1  0  0  0  0
  7 10  1  0  0  0  0
 11 12  1  0  0  0  0
 12 13  2  0  0  0  0
 12 14  1  0  0  0  0
 13 15  1  0  0  0  0
 14 16  2  0  0  0  0
 15 17  2  0  0  0  0
 16 17  1  0  0  0  0
M  END
