721
 OpenBabel10141417493D

 17 17  0  0  0  0  0  0  0  0999 V2000
    0.7779    0.2967   -0.0838 O   0  0  0  0  0  0  0  0  0  0  0  0
    0.1186    2.4506   -0.5642 O   0  0  0  0  0  0  0  0  0  0  0  0
   -1.9141   -1.0033   -2.4425 N   0  0  0  0  0  0  0  0  0  0  0  0
    3.2864    2.9882    5.0554 N   0  0  0  0  0  0  0  0  0  0  0  0
   -1.2522   -0.4299   -1.2415 C   0  0  0  0  0  0  0  0  0  0  0  0
   -3.3628   -1.1790   -2.2040 C   0  0  0  0  0  0  0  0  0  0  0  0
   -1.6795   -0.1766   -3.6458 C   0  0  0  0  0  0  0  0  0  0  0  0
    0.2661   -0.1905   -1.3322 C   0  0  0  0  0  0  0  0  0  0  0  0
   -3.6878   -2.1552   -1.0809 C   0  0  0  0  0  0  0  0  0  0  0  0
   -2.3486   -0.7059   -4.9180 C   0  0  0  0  0  0  0  0  0  0  0  0
    0.6816    1.6410    0.1484 C   0  0  0  0  0  0  0  0  0  0  0  0
    1.4004    1.9827    1.4229 C   0  0  0  0  0  0  0  0  0  0  0  0
    1.4283    3.3138    1.8561 C   0  0  0  0  0  0  0  0  0  0  0  0
    2.0440    1.0088    2.1897 C   0  0  0  0  0  0  0  0  0  0  0  0
    2.7718    2.6856    3.7909 C   0  0  0  0  0  0  0  0  0  0  0  0
    2.0952    3.6552    3.0452 C   0  0  0  0  0  0  0  0  0  0  0  0
    2.7121    1.3571    3.3674 C   0  0  0  0  0  0  0  0  0  0  0  0
  1  8  1  0  0  0  0
  1 11  1  0  0  0  0
  2 11  2  0  0  0  0
  3  5  1  0  0  0  0
  3  6  1  0  0  0  0
  3  7  1  0  0  0  0
  4 15  1  0  0  0  0
  5  8  1  0  0  0  0
  6  9  1  0  0  0  0
  7 10  1  0  0  0  0
 11 12  1  0  0  0  0
 12 13  2  0  0  0  0
 12 14  1  0  0  0  0
 13 16  1  0  0  0  0
 14 17  2  0  0  0  0
 15 16  2  0  0  0  0
 15 17  1  0  0  0  0
M  END
