1131
 OpenBabel10141417493D

 17 17  0  0  0  0  0  0  0  0999 V2000
    0.3087   -1.2265    5.9480 Cl  0  0  0  0  0  0  0  0  0  0  0  0
    4.6228   -0.9609   -0.7493 N   0  0  0  0  0  0  0  0  0  0  0  0
    2.8911   -2.2335    0.6948 N   0  0  0  0  0  0  0  0  0  0  0  0
    4.8198   -3.1966   -0.3444 N   0  0  0  0  0  0  0  0  0  0  0  0
    6.7337   -2.0200   -0.8003 N   0  0  0  0  0  0  0  0  0  0  0  0
    3.1733   -4.5002    0.5482 N   0  0  0  0  0  0  0  0  0  0  0  0
    5.1694    0.3678   -1.0210 C   0  0  0  0  0  0  0  0  0  0  0  0
    5.1977    0.5969   -2.5262 C   0  0  0  0  0  0  0  0  0  0  0  0
    4.2421    1.3872   -0.3567 C   0  0  0  0  0  0  0  0  0  0  0  0
    2.3443   -2.0099    1.9767 C   0  0  0  0  0  0  0  0  0  0  0  0
    5.3882   -1.9866   -0.6306 C   0  0  0  0  0  0  0  0  0  0  0  0
    1.5338   -0.8776    2.1612 C   0  0  0  0  0  0  0  0  0  0  0  0
    2.5019   -2.8925    3.0518 C   0  0  0  0  0  0  0  0  0  0  0  0
    3.6967   -3.2663    0.3007 C   0  0  0  0  0  0  0  0  0  0  0  0
    0.9104   -0.6280    3.3870 C   0  0  0  0  0  0  0  0  0  0  0  0
    1.8821   -2.6475    4.2810 C   0  0  0  0  0  0  0  0  0  0  0  0
    1.0858   -1.5181    4.4419 C   0  0  0  0  0  0  0  0  0  0  0  0
  1 17  1  0  0  0  0
  2  7  1  0  0  0  0
  2 11  2  0  0  0  0
  3 10  1  0  0  0  0
  3 14  1  0  0  0  0
  4 11  1  0  0  0  0
  4 14  2  3  0  0  0
  5 11  1  0  0  0  0
  6 14  1  0  0  0  0
  7  8  1  0  0  0  0
  7  9  1  0  0  0  0
 10 12  2  0  0  0  0
 10 13  1  0  0  0  0
 12 15  1  0  0  0  0
 13 16  2  0  0  0  0
 15 17  2  0  0  0  0
 16 17  1  0  0  0  0
M  END
