1069
 OpenBabel10141417503D

 20 22  0  0  1  0  0  0  0  0999 V2000
   -0.2030   -2.3880    0.8748 S   0  0  0  0  0  0  0  0  0  0  0  0
   -0.1521    0.4313   -0.5014 N   0  0  0  0  0  0  0  0  0  0  0  0
   -0.2386    4.0195    0.9841 N   0  0  0  0  0  0  0  0  0  0  0  0
   -0.0761    2.5258    0.9978 C   0  0  3  0  0  0  0  0  0  0  0  0
   -0.2785    1.9154   -0.4348 C   0  0  0  0  0  0  0  0  0  0  0  0
    1.1079   -0.1246   -0.1510 C   0  0  0  0  0  0  0  0  0  0  0  0
   -1.3595   -0.3128   -0.6236 C   0  0  0  0  0  0  0  0  0  0  0  0
   -1.0670    1.8693    1.9804 C   0  0  0  0  0  0  0  0  0  0  0  0
    1.2124   -1.3945    0.4526 C   0  0  0  0  0  0  0  0  0  0  0  0
   -1.4948   -1.5981   -0.0609 C   0  0  0  0  0  0  0  0  0  0  0  0
   -0.1399    4.6126    2.3228 C   0  0  0  0  0  0  0  0  0  0  0  0
    0.7443    4.6710    0.1098 C   0  0  0  0  0  0  0  0  0  0  0  0
    2.3166    0.5494   -0.4300 C   0  0  0  0  0  0  0  0  0  0  0  0
   -2.4619    0.1762   -1.3568 C   0  0  0  0  0  0  0  0  0  0  0  0
    2.4694   -1.9259    0.7980 C   0  0  0  0  0  0  0  0  0  0  0  0
   -2.7007   -2.3140   -0.1795 C   0  0  0  0  0  0  0  0  0  0  0  0
    3.5637    0.0116   -0.0928 C   0  0  0  0  0  0  0  0  0  0  0  0
   -3.6623   -0.5353   -1.4649 C   0  0  0  0  0  0  0  0  0  0  0  0
    3.6398   -1.2246    0.5300 C   0  0  0  0  0  0  0  0  0  0  0  0
   -3.7847   -1.7798   -0.8684 C   0  0  0  0  0  0  0  0  0  0  0  0
  1  9  1  0  0  0  0
  1 10  1  0  0  0  0
  2  5  1  0  0  0  0
  2  6  1  0  0  0  0
  2  7  1  0  0  0  0
  3  4  1  0  0  0  0
  3 11  1  0  0  0  0
  3 12  1  0  0  0  0
  4  5  1  0  0  0  0
  4  8  1  0  0  0  0
  6  9  1  0  0  0  0
  6 13  2  0  0  0  0
  7 10  1  0  0  0  0
  7 14  2  0  0  0  0
  9 15  2  0  0  0  0
 10 16  2  0  0  0  0
 13 17  1  0  0  0  0
 14 18  1  0  0  0  0
 15 19  1  0  0  0  0
 16 20  1  0  0  0  0
 17 19  2  0  0  0  0
 18 20  2  0  0  0  0
M  END
