
 OpenBabel10141417483D

 11 11  0  0  0  0  0  0  0  0999 V2000
    2.9410    0.5447   -1.5074 C   0  0  0  0  0  0  0  0  0  0  0  0
    2.6363   -0.0338   -0.1184 C   0  0  3  0  0  0  0  0  0  0  0  0
    2.7314   -1.5826   -0.1817 C   0  0  0  0  0  0  0  0  0  0  0  0
    2.4198   -2.3277    1.1430 C   0  0  0  0  0  0  0  0  0  0  0  0
    2.5842   -3.8572    1.0097 C   0  0  0  0  0  0  0  0  0  0  0  0
    1.5199   -4.4913    0.1154 C   0  0  0  0  0  0  0  0  0  0  0  0
    0.1133   -4.1501    0.6001 C   0  0  0  0  0  0  0  0  0  0  0  0
   -0.0863   -2.6494    0.8028 C   0  0  0  0  0  0  0  0  0  0  0  0
    1.0089   -2.0348    1.6750 C   0  0  0  0  0  0  0  0  0  0  0  0
    3.5773    0.4799    0.8885 N   0  0  0  0  0  0  0  0  0  0  0  0
    3.3220    1.8692    1.2582 C   0  0  0  0  0  0  0  0  0  0  0  0
  1  2  1  0  0  0  0
  2  3  1  0  0  0  0
  2 10  1  0  0  0  0
  3  4  1  0  0  0  0
  4  5  1  0  0  0  0
  4  9  1  0  0  0  0
  5  6  1  0  0  0  0
  6  7  1  0  0  0  0
  7  8  1  0  0  0  0
  8  9  1  0  0  0  0
 10 11  1  0  0  0  0
M  END
