807
 OpenBabel10141417533D

 21 21  0  0  0  0  0  0  0  0999 V2000
    0.9271   -0.0649    0.3436 O   0  0  0  0  0  0  0  0  0  0  0  0
    5.2586    1.5465    4.4078 O   0  0  0  0  0  0  0  0  0  0  0  0
    2.6669   -0.6901   -1.0342 O   0  0  0  0  0  0  0  0  0  0  0  0
   -1.2684   -2.9018   -0.7879 N   0  0  0  0  0  0  0  0  0  0  0  0
    2.8073    0.4065    4.8877 N   0  0  0  0  0  0  0  0  0  0  0  0
   -0.2555   -2.1064   -0.0635 C   0  0  0  0  0  0  0  0  0  0  0  0
   -2.5871   -2.2482   -0.7576 C   0  0  0  0  0  0  0  0  0  0  0  0
   -0.7678   -3.1639   -2.1563 C   0  0  0  0  0  0  0  0  0  0  0  0
   -0.0112   -0.6652   -0.5561 C   0  0  0  0  0  0  0  0  0  0  0  0
   -3.1675   -2.0301    0.6479 C   0  0  0  0  0  0  0  0  0  0  0  0
   -1.6007   -4.0992   -3.0253 C   0  0  0  0  0  0  0  0  0  0  0  0
    3.0558    0.0519    1.2085 C   0  0  0  0  0  0  0  0  0  0  0  0
    2.2239   -0.2895    0.0406 C   0  0  0  0  0  0  0  0  0  0  0  0
    4.5986    0.9979    3.3302 C   0  0  0  0  0  0  0  0  0  0  0  0
    3.2921    0.5269    3.5732 C   0  0  0  0  0  0  0  0  0  0  0  0
    2.5422    0.0152    2.5125 C   0  0  0  0  0  0  0  0  0  0  0  0
    4.3782    0.4426    0.9865 C   0  0  0  0  0  0  0  0  0  0  0  0
    6.0440    2.7085    4.1037 C   0  0  0  0  0  0  0  0  0  0  0  0
    5.1528    0.9089    2.0489 C   0  0  0  0  0  0  0  0  0  0  0  0
    6.1037    3.6019    5.3459 C   0  0  0  0  0  0  0  0  0  0  0  0
    6.8805    4.8860    5.0945 C   0  0  0  0  0  0  0  0  0  0  0  0
  1  9  1  0  0  0  0
  1 13  1  0  0  0  0
  2 14  1  0  0  0  0
  2 18  1  0  0  0  0
  3 13  2  0  0  0  0
  4  6  1  0  0  0  0
  4  7  1  0  0  0  0
  4  8  1  0  0  0  0
  5 15  1  0  0  0  0
  6  9  1  0  0  0  0
  7 10  1  0  0  0  0
  8 11  1  0  0  0  0
 12 13  1  0  0  0  0
 12 16  2  0  0  0  0
 12 17  1  0  0  0  0
 14 15  2  0  0  0  0
 14 19  1  0  0  0  0
 15 16  1  0  0  0  0
 17 19  2  0  0  0  0
 18 20  1  0  0  0  0
 20 21  1  0  0  0  0
M  END
