777
 OpenBabel10141417513D

 24 26  0  0  1  0  0  0  0  0999 V2000
   -0.1453   -2.5365    1.0143 S   0  0  0  0  0  0  0  0  0  0  0  0
    6.3227   -1.0577   -0.2233 O   0  0  0  0  0  0  0  0  0  0  0  0
    0.3886   -0.1149   -0.8901 N   0  0  0  0  0  0  0  0  0  0  0  0
    0.6184    3.4223    0.7799 N   0  0  0  0  0  0  0  0  0  0  0  0
    0.5593    1.9222    0.7468 C   0  0  3  0  0  0  0  0  0  0  0  0
    0.4393    1.3753   -0.7310 C   0  0  0  0  0  0  0  0  0  0  0  0
    1.5287   -0.8203   -0.4338 C   0  0  0  0  0  0  0  0  0  0  0  0
   -0.9096   -0.6817   -0.9484 C   0  0  0  0  0  0  0  0  0  0  0  0
   -0.5214    1.3507    1.6811 C   0  0  0  0  0  0  0  0  0  0  0  0
    1.4260   -1.8956    0.4658 C   0  0  0  0  0  0  0  0  0  0  0  0
   -1.2658   -1.7971   -0.1659 C   0  0  0  0  0  0  0  0  0  0  0  0
    2.8039   -0.4630   -0.9101 C   0  0  0  0  0  0  0  0  0  0  0  0
   -1.8632   -0.1865   -1.8609 C   0  0  0  0  0  0  0  0  0  0  0  0
   -0.6048    4.0759    0.3084 C   0  0  0  0  0  0  0  0  0  0  0  0
    0.9767    3.9503    2.1037 C   0  0  0  0  0  0  0  0  0  0  0  0
    3.9775   -1.0374   -0.3732 C   0  0  0  0  0  0  0  0  0  0  0  0
    2.5892   -2.4816    0.9882 C   0  0  0  0  0  0  0  0  0  0  0  0
   -2.5562   -2.3427   -0.2598 C   0  0  0  0  0  0  0  0  0  0  0  0
    3.8470   -2.0381    0.5915 C   0  0  0  0  0  0  0  0  0  0  0  0
   -3.1445   -0.7356   -1.9512 C   0  0  0  0  0  0  0  0  0  0  0  0
   -3.4937   -1.8102   -1.1438 C   0  0  0  0  0  0  0  0  0  0  0  0
    5.3526   -0.5635   -0.7469 C   0  0  0  0  0  0  0  0  0  0  0  0
    5.4297    0.5427   -1.8179 C   0  0  0  0  0  0  0  0  0  0  0  0
    6.8564    0.9947   -2.0846 C   0  0  0  0  0  0  0  0  0  0  0  0
  1 10  1  0  0  0  0
  1 11  1  0  0  0  0
  2 22  2  0  0  0  0
  3  6  1  0  0  0  0
  3  7  1  0  0  0  0
  3  8  1  0  0  0  0
  4  5  1  0  0  0  0
  4 14  1  0  0  0  0
  4 15  1  0  0  0  0
  5  6  1  0  0  0  0
  5  9  1  0  0  0  0
  7 10  2  0  0  0  0
  7 12  1  0  0  0  0
  8 11  1  0  0  0  0
  8 13  2  0  0  0  0
 10 17  1  0  0  0  0
 11 18  2  0  0  0  0
 12 16  2  0  0  0  0
 13 20  1  0  0  0  0
 16 19  1  0  0  0  0
 16 22  1  0  0  0  0
 17 19  2  0  0  0  0
 18 21  1  0  0  0  0
 20 21  2  0  0  0  0
 22 23  1  0  0  0  0
 23 24  1  0  0  0  0
M  END
