782
 OpenBabel10141417513D

 27 29  0  0  0  0  0  0  0  0999 V2000
    0.5063   -0.3747    0.3446 O   0  0  0  0  0  0  0  0  0  0  0  0
    0.5814    1.3425    3.1518 O   0  0  0  0  0  0  0  0  0  0  0  0
    0.6814   -2.6452    0.3679 O   0  0  0  0  0  0  0  0  0  0  0  0
   -2.0191   -0.5792   -2.6125 N   0  3  0  0  0  0  0  0  0  0  0  0
   -3.6092   -0.6735   -2.4640 C   0  0  0  0  0  0  0  0  0  0  0  0
   -1.5319    0.7007   -3.4059 C   0  0  0  0  0  0  0  0  0  0  0  0
   -1.4015   -0.5305   -1.1457 C   0  0  0  0  0  0  0  0  0  0  0  0
   -1.4468   -1.8459   -3.2792 C   0  0  0  0  0  0  0  0  0  0  0  0
   -4.3744   -0.7381   -3.7916 C   0  0  0  0  0  0  0  0  0  0  0  0
   -4.0459   -1.8855   -1.6273 C   0  0  0  0  0  0  0  0  0  0  0  0
   -2.0109    0.7793   -4.8579 C   0  0  0  0  0  0  0  0  0  0  0  0
   -1.8637    1.9987   -2.6625 C   0  0  0  0  0  0  0  0  0  0  0  0
    0.1342   -0.4194   -1.0492 C   0  0  0  0  0  0  0  0  0  0  0  0
    0.9040   -1.4352    2.4807 C   0  0  0  0  0  0  0  0  0  0  0  0
    0.7194   -1.5811    0.9613 C   0  0  0  0  0  0  0  0  0  0  0  0
    2.0779   -0.5483    2.8021 C   0  0  0  0  0  0  0  0  0  0  0  0
   -0.3590   -0.9028    3.1227 C   0  0  0  0  0  0  0  0  0  0  0  0
    1.8467    0.7975    3.1113 C   0  0  0  0  0  0  0  0  0  0  0  0
   -0.4731    0.4760    3.3362 C   0  0  0  0  0  0  0  0  0  0  0  0
    3.3908   -1.0352    2.7590 C   0  0  0  0  0  0  0  0  0  0  0  0
   -1.4342   -1.7385    3.4519 C   0  0  0  0  0  0  0  0  0  0  0  0
    2.9151    1.6501    3.3794 C   0  0  0  0  0  0  0  0  0  0  0  0
   -1.6813    1.0288    3.7592 C   0  0  0  0  0  0  0  0  0  0  0  0
    4.4577   -0.1823    3.0368 C   0  0  0  0  0  0  0  0  0  0  0  0
   -2.6387   -1.1854    3.8916 C   0  0  0  0  0  0  0  0  0  0  0  0
    4.2204    1.1569    3.3488 C   0  0  0  0  0  0  0  0  0  0  0  0
   -2.7720    0.1980    4.0156 C   0  0  0  0  0  0  0  0  0  0  0  0
  1 13  1  0  0  0  0
  1 15  1  0  0  0  0
  2 18  1  0  0  0  0
  2 19  1  0  0  0  0
  3 15  2  0  0  0  0
  4  5  1  0  0  0  0
  4  6  1  0  0  0  0
  4  7  1  0  0  0  0
  4  8  1  0  0  0  0
  5  9  1  0  0  0  0
  5 10  1  0  0  0  0
  6 11  1  0  0  0  0
  6 12  1  0  0  0  0
  7 13  1  0  0  0  0
 14 15  1  0  0  0  0
 14 16  1  0  0  0  0
 14 17  1  0  0  0  0
 16 18  1  0  0  0  0
 16 20  2  0  0  0  0
 17 19  1  0  0  0  0
 17 21  2  0  0  0  0
 18 22  2  0  0  0  0
 19 23  2  0  0  0  0
 20 24  1  0  0  0  0
 21 25  1  0  0  0  0
 22 26  1  0  0  0  0
 23 27  1  0  0  0  0
 24 26  2  0  0  0  0
 25 27  2  0  0  0  0
M  CHG  1   4   1
M  END
