571
 OpenBabel10141417513D

 19 20  0  0  1  0  0  0  0  0999 V2000
    0.9161    0.9351   -0.8548 O   0  0  0  0  0  0  0  0  0  0  0  0
   -1.5410   -1.8244   -1.1783 O   0  0  0  0  0  0  0  0  0  0  0  0
   -1.9884   -0.0238    1.1599 N   0  0  0  0  0  0  0  0  0  0  0  0
   -1.0922   -0.4623   -1.1868 C   0  0  3  0  0  0  0  0  0  0  0  0
   -1.9644    0.4136   -0.2583 C   0  0  0  0  0  0  0  0  0  0  0  0
   -2.8038    0.8896    1.9959 C   0  0  0  0  0  0  0  0  0  0  0  0
    0.4028   -0.4036   -0.8492 C   0  0  0  0  0  0  0  0  0  0  0  0
   -4.2675    0.8920    1.5543 C   0  0  0  0  0  0  0  0  0  0  0  0
   -2.7740    0.4896    3.4795 C   0  0  0  0  0  0  0  0  0  0  0  0
    1.3831    1.4427   -2.0467 C   0  0  0  0  0  0  0  0  0  0  0  0
    1.9223    2.7630   -2.0197 C   0  0  0  0  0  0  0  0  0  0  0  0
    2.3595    3.3345   -3.2538 C   0  0  0  0  0  0  0  0  0  0  0  0
    1.3242    0.7362   -3.2504 C   0  0  0  0  0  0  0  0  0  0  0  0
    2.0542    3.5642   -0.8646 C   0  0  0  0  0  0  0  0  0  0  0  0
    2.2937    2.5886   -4.4297 C   0  0  0  0  0  0  0  0  0  0  0  0
    1.7815    1.2967   -4.4346 C   0  0  0  0  0  0  0  0  0  0  0  0
    2.8488    4.6462   -3.2933 C   0  0  0  0  0  0  0  0  0  0  0  0
    2.5560    4.8709   -0.9231 C   0  0  0  0  0  0  0  0  0  0  0  0
    2.9414    5.4185   -2.1445 C   0  0  0  0  0  0  0  0  0  0  0  0
  1  7  1  0  0  0  0
  1 10  1  0  0  0  0
  2  4  1  0  0  0  0
  3  5  1  0  0  0  0
  3  6  1  0  0  0  0
  4  5  1  0  0  0  0
  4  7  1  0  0  0  0
  6  8  1  0  0  0  0
  6  9  1  0  0  0  0
 10 11  1  0  0  0  0
 10 13  2  0  0  0  0
 11 12  1  0  0  0  0
 11 14  2  0  0  0  0
 12 15  1  0  0  0  0
 12 17  2  0  0  0  0
 13 16  1  0  0  0  0
 14 18  1  0  0  0  0
 15 16  2  0  0  0  0
 17 19  1  0  0  0  0
 18 19  2  0  0  0  0
M  END
