818
 OpenBabel10141417493D

 13 13  0  0  0  0  0  0  0  0999 V2000
    0.7996    0.1335   -0.2598 O   0  0  0  0  0  0  0  0  0  0  0  0
    2.1744    2.6551    0.3340 C   0  0  0  0  0  0  0  0  0  0  0  0
    2.0066   -2.4278   -0.3242 C   0  0  0  0  0  0  0  0  0  0  0  0
    2.8607    1.3013    0.2077 C   0  0  0  0  0  0  0  0  0  0  0  0
    2.7896   -1.1445   -0.0816 C   0  0  0  0  0  0  0  0  0  0  0  0
    2.1512    0.1102   -0.0413 C   0  0  0  0  0  0  0  0  0  0  0  0
    4.2538    1.2116    0.3707 C   0  0  0  0  0  0  0  0  0  0  0  0
    4.1801   -1.1860    0.1033 C   0  0  0  0  0  0  0  0  0  0  0  0
    2.4238    3.2977    1.7033 C   0  0  0  0  0  0  0  0  0  0  0  0
    2.5959    3.5989   -0.7954 C   0  0  0  0  0  0  0  0  0  0  0  0
    2.4862   -3.1536   -1.5853 C   0  0  0  0  0  0  0  0  0  0  0  0
    2.0640   -3.3555    0.8929 C   0  0  0  0  0  0  0  0  0  0  0  0
    4.9078   -0.0184    0.3166 C   0  0  0  0  0  0  0  0  0  0  0  0
  1  6  1  0  0  0  0
  2  4  1  0  0  0  0
  2  9  1  0  0  0  0
  2 10  1  0  0  0  0
  3  5  1  0  0  0  0
  3 11  1  0  0  0  0
  3 12  1  0  0  0  0
  4  6  2  0  0  0  0
  4  7  1  0  0  0  0
  5  6  1  0  0  0  0
  5  8  2  0  0  0  0
  7 13  2  0  0  0  0
  8 13  1  0  0  0  0
M  END
