1182
 OpenBabel10141417493D

 25 26  0  0  1  0  0  0  0  0999 V2000
    4.3805    3.6677    0.3798 O   0  0  0  0  0  0  0  0  0  0  0  0
    2.5352    2.2543    2.2105 O   0  0  0  0  0  0  0  0  0  0  0  0
    3.9905    7.3510   -1.5213 O   0  0  0  0  0  0  0  0  0  0  0  0
    4.0790   -0.0972    3.2661 N   0  0  0  0  0  0  0  0  0  0  0  0
    3.9405    2.3980    2.4587 C   0  0  3  0  0  0  0  0  0  0  0  0
    4.4003    1.3226    3.5010 C   0  0  0  0  0  0  0  0  0  0  0  0
    4.7130    2.4571    1.1186 C   0  0  0  0  0  0  0  0  0  0  0  0
    4.8874   -0.7211    2.2160 C   0  0  0  0  0  0  0  0  0  0  0  0
    4.0434    6.5464    0.7430 C   0  0  0  0  0  0  0  0  0  0  0  0
    3.7397    7.9873    1.1651 C   0  0  0  0  0  0  0  0  0  0  0  0
    4.5771   -2.2201    2.1194 C   0  0  0  0  0  0  0  0  0  0  0  0
    5.1179    5.2974   -1.2717 C   0  0  0  0  0  0  0  0  0  0  0  0
    5.1953    4.0078   -0.6821 C   0  0  0  0  0  0  0  0  0  0  0  0
    4.3196    6.4647   -0.7450 C   0  0  0  0  0  0  0  0  0  0  0  0
    3.4231    8.0993    2.6378 C   0  0  0  0  0  0  0  0  0  0  0  0
    5.8627    5.5902   -2.4257 C   0  0  0  0  0  0  0  0  0  0  0  0
    6.1048    3.0917   -1.2558 C   0  0  0  0  0  0  0  0  0  0  0  0
    5.4140   -2.9680    1.0838 C   0  0  0  0  0  0  0  0  0  0  0  0
    6.7684    4.6747   -2.9479 C   0  0  0  0  0  0  0  0  0  0  0  0
    4.2004    8.9086    3.4772 C   0  0  0  0  0  0  0  0  0  0  0  0
    2.3256    7.4166    3.1795 C   0  0  0  0  0  0  0  0  0  0  0  0
    6.9216    3.4437   -2.3346 C   0  0  0  0  0  0  0  0  0  0  0  0
    3.8935    9.0173    4.8350 C   0  0  0  0  0  0  0  0  0  0  0  0
    2.0225    7.5229    4.5366 C   0  0  0  0  0  0  0  0  0  0  0  0
    2.8065    8.3232    5.3638 C   0  0  0  0  0  0  0  0  0  0  0  0
  1  7  1  0  0  0  0
  1 13  1  0  0  0  0
  2  5  1  0  0  0  0
  3 14  2  0  0  0  0
  4  6  1  0  0  0  0
  4  8  1  0  0  0  0
  5  6  1  0  0  0  0
  5  7  1  0  0  0  0
  8 11  1  0  0  0  0
  9 10  1  0  0  0  0
  9 14  1  0  0  0  0
 10 15  1  0  0  0  0
 11 18  1  0  0  0  0
 12 13  1  0  0  0  0
 12 14  1  0  0  0  0
 12 16  2  0  0  0  0
 13 17  2  0  0  0  0
 15 20  2  0  0  0  0
 15 21  1  0  0  0  0
 16 19  1  0  0  0  0
 17 22  1  0  0  0  0
 19 22  2  0  0  0  0
 20 23  1  0  0  0  0
 21 24  2  0  0  0  0
 23 25  2  0  0  0  0
 24 25  1  0  0  0  0
M  END
