344
 OpenBabel10141417483D

 20 22  0  0  0  0  0  0  0  0999 V2000
   -0.2308    1.2256   -0.4503 N   0  0  0  0  0  0  0  0  0  0  0  0
   -4.1898   -0.4721   -3.0314 C   0  0  3  0  0  0  0  0  0  0  0  0
   -2.7022   -0.0315   -3.0739 C   0  0  0  0  0  0  0  0  0  0  0  0
   -4.6925   -0.9698   -4.3840 C   0  0  0  0  0  0  0  0  0  0  0  0
   -5.1209    0.5675   -2.4183 C   0  0  0  0  0  0  0  0  0  0  0  0
   -2.1648    0.4096   -1.7033 C   0  0  0  0  0  0  0  0  0  0  0  0
   -4.9273   -0.1046   -5.4709 C   0  0  0  0  0  0  0  0  0  0  0  0
   -5.4218    1.7856   -3.0555 C   0  0  0  0  0  0  0  0  0  0  0  0
   -0.6873    0.8027   -1.7761 C   0  0  0  0  0  0  0  0  0  0  0  0
   -4.9447   -2.3474   -4.5487 C   0  0  0  0  0  0  0  0  0  0  0  0
   -5.6644    0.3117   -1.1421 C   0  0  0  0  0  0  0  0  0  0  0  0
   -4.6910    1.3454   -5.4213 C   0  0  0  0  0  0  0  0  0  0  0  0
   -4.9023    2.1609   -4.3783 C   0  0  0  0  0  0  0  0  0  0  0  0
   -5.3780   -0.6369   -6.6916 C   0  0  0  0  0  0  0  0  0  0  0  0
   -6.2199    2.7289   -2.3866 C   0  0  0  0  0  0  0  0  0  0  0  0
   -5.4089   -2.8574   -5.7618 C   0  0  0  0  0  0  0  0  0  0  0  0
   -6.4662    1.2525   -0.4987 C   0  0  0  0  0  0  0  0  0  0  0  0
   -5.6232   -2.0022   -6.8352 C   0  0  0  0  0  0  0  0  0  0  0  0
   -6.7396    2.4648   -1.1189 C   0  0  0  0  0  0  0  0  0  0  0  0
    1.1772    1.5971   -0.4720 C   0  0  0  0  0  0  0  0  0  0  0  0
  1  9  1  0  0  0  0
  1 20  1  0  0  0  0
  2  3  1  0  0  0  0
  2  4  1  0  0  0  0
  2  5  1  0  0  0  0
  3  6  1  0  0  0  0
  4  7  1  0  0  0  0
  4 10  2  0  0  0  0
  5  8  1  0  0  0  0
  5 11  2  0  0  0  0
  6  9  1  0  0  0  0
  7 12  1  0  0  0  0
  7 14  2  0  0  0  0
  8 13  1  0  0  0  0
  8 15  2  0  0  0  0
 10 16  1  0  0  0  0
 11 17  1  0  0  0  0
 12 13  2  0  0  0  0
 14 18  1  0  0  0  0
 15 19  1  0  0  0  0
 16 18  2  0  0  0  0
 17 19  2  0  0  0  0
M  END
