852
 OpenBabel10141417493D

 12 12  0  0  1  0  0  0  0  0999 V2000
    3.2106   -0.4719    0.5357 O   0  0  0  0  0  0  0  0  0  0  0  0
    0.6677    0.6508    1.0044 N   0  0  0  0  0  0  0  0  0  0  0  0
    0.9066   -0.7876    1.3162 C   0  0  2  0  0  0  0  0  0  0  0  0
    2.0594   -1.3215    0.3959 C   0  0  2  0  0  0  0  0  0  0  0  0
    2.4265   -2.7785    0.5993 C   0  0  0  0  0  0  0  0  0  0  0  0
    1.2427   -0.9645    2.8046 C   0  0  0  0  0  0  0  0  0  0  0  0
    1.4712   -3.7888    0.3854 C   0  0  0  0  0  0  0  0  0  0  0  0
    3.7193   -3.1619    0.9836 C   0  0  0  0  0  0  0  0  0  0  0  0
   -0.5030    1.1933    1.6911 C   0  0  0  0  0  0  0  0  0  0  0  0
    1.8097   -5.1364    0.5560 C   0  0  0  0  0  0  0  0  0  0  0  0
    4.0566   -4.5078    1.1534 C   0  0  0  0  0  0  0  0  0  0  0  0
    3.0977   -5.4947    0.9371 C   0  0  0  0  0  0  0  0  0  0  0  0
  2  9  1  0  0  0  0
  3  2  1  6  0  0  0
  3  6  1  0  0  0  0
  4  5  1  1  0  0  0
  4  3  1  0  0  0  0
  4  1  1  0  0  0  0
  5  7  2  0  0  0  0
  5  8  1  0  0  0  0
  7 10  1  0  0  0  0
  8 11  2  0  0  0  0
 10 12  2  0  0  0  0
 11 12  1  0  0  0  0
M  END
