339
 OpenBabel10141417553D

  9  9  0  0  0  0  0  0  0  0999 V2000
    1.3650   -0.5233    1.1330 O   0  0  0  0  0  0  0  0  0  0  0  0
    3.4063   -0.5392   -1.7947 N   0  0  0  0  0  0  0  0  0  0  0  0
    3.2555   -3.3453   -1.3409 N   0  0  0  0  0  0  0  0  0  0  0  0
    2.1452    1.1870   -0.1374 N   0  0  0  0  0  0  0  0  0  0  0  0
    2.7106   -1.0812   -0.7513 C   0  0  0  0  0  0  0  0  0  0  0  0
    2.6370   -2.4481   -0.5300 C   0  0  0  0  0  0  0  0  0  0  0  0
    2.0135   -0.1411    0.1680 C   0  0  0  0  0  0  0  0  0  0  0  0
    4.0185   -1.4425   -2.5956 C   0  0  0  0  0  0  0  0  0  0  0  0
    3.9455   -2.8105   -2.3752 C   0  0  0  0  0  0  0  0  0  0  0  0
  1  7  2  0  0  0  0
  2  5  2  0  0  0  0
  2  8  1  0  0  0  0
  3  6  2  0  0  0  0
  3  9  1  0  0  0  0
  4  7  1  0  0  0  0
  5  6  1  0  0  0  0
  5  7  1  0  0  0  0
  8  9  2  0  0  0  0
M  END
