147
 OpenBabel10141417483D

 12 12  0  0  0  0  0  0  0  0999 V2000
    0.9001    0.0553   -0.1736 O   0  0  0  0  0  0  0  0  0  0  0  0
    4.7991   -3.4075    0.9962 O   0  0  0  0  0  0  0  0  0  0  0  0
    0.8931   -2.5024   -0.2148 O   0  0  0  0  0  0  0  0  0  0  0  0
    4.3842    1.0761   -0.0761 N   0  0  0  0  0  0  0  0  0  0  0  0
    4.3257   -1.3526   -0.1039 C   0  0  0  0  0  0  0  0  0  0  0  0
    2.9231   -1.3026   -0.1290 C   0  0  0  0  0  0  0  0  0  0  0  0
    2.2654   -0.0628   -0.1341 C   0  0  0  0  0  0  0  0  0  0  0  0
    3.0295    1.1004   -0.1045 C   0  0  0  0  0  0  0  0  0  0  0  0
    5.1286   -2.6168   -0.1334 C   0  0  0  0  0  0  0  0  0  0  0  0
    4.9906   -0.1309   -0.0735 C   0  0  0  0  0  0  0  0  0  0  0  0
    2.3775    2.4517   -0.1015 C   0  0  0  0  0  0  0  0  0  0  0  0
    2.1212   -2.5472   -0.1555 C   0  0  0  0  0  0  0  0  0  0  0  0
  1  7  1  0  0  0  0
  2  9  1  0  0  0  0
  3 12  2  0  0  0  0
  4  8  2  0  0  0  0
  4 10  1  0  0  0  0
  5  6  1  0  0  0  0
  5  9  1  0  0  0  0
  5 10  2  0  0  0  0
  6  7  2  0  0  0  0
  6 12  1  0  0  0  0
  7  8  1  0  0  0  0
  8 11  1  0  0  0  0
M  END
