205
 OpenBabel10141418003D

 17 18  0  0  0  0  0  0  0  0999 V2000
   -0.1606   -0.0215   -0.9114 Cl  0  0  0  0  0  0  0  0  0  0  0  0
    8.0729    1.3659   -0.7080 N   0  0  0  0  0  0  0  0  0  0  0  0
    8.0793   -0.9110   -1.2082 N   0  0  0  0  0  0  0  0  0  0  0  0
    6.2519   -2.1547   -1.6204 N   0  0  0  0  0  0  0  0  0  0  0  0
   10.0659    0.2373   -0.9064 N   0  0  0  0  0  0  0  0  0  0  0  0
    5.9240    0.2331   -1.0293 C   0  0  0  0  0  0  0  0  0  0  0  0
    6.6974    1.3893   -0.7881 C   0  0  0  0  0  0  0  0  0  0  0  0
    6.1588    2.7787   -0.5198 C   0  0  0  0  0  0  0  0  0  0  0  0
    4.4102    0.1845   -1.0082 C   0  0  0  0  0  0  0  0  0  0  0  0
    6.7267   -0.8961   -1.2556 C   0  0  0  0  0  0  0  0  0  0  0  0
    3.6715   -0.6340   -1.8813 C   0  0  0  0  0  0  0  0  0  0  0  0
    3.6460    0.9236   -0.0824 C   0  0  0  0  0  0  0  0  0  0  0  0
    6.8135    3.8318   -1.4106 C   0  0  0  0  0  0  0  0  0  0  0  0
    8.6921    0.2355   -0.9487 C   0  0  0  0  0  0  0  0  0  0  0  0
    2.2692   -0.7321   -1.8321 C   0  0  0  0  0  0  0  0  0  0  0  0
    2.2367    0.9022   -0.0816 C   0  0  0  0  0  0  0  0  0  0  0  0
    1.5575    0.0586   -0.9444 C   0  0  0  0  0  0  0  0  0  0  0  0
  1 17  1  0  0  0  0
  2  7  1  0  0  0  0
  2 14  2  0  0  0  0
  3 10  2  0  0  0  0
  3 14  1  0  0  0  0
  4 10  1  0  0  0  0
  5 14  1  0  0  0  0
  6  7  2  0  0  0  0
  6  9  1  0  0  0  0
  6 10  1  0  0  0  0
  7  8  1  0  0  0  0
  8 13  1  0  0  0  0
  9 11  2  0  0  0  0
  9 12  1  0  0  0  0
 11 15  1  0  0  0  0
 12 16  2  0  0  0  0
 15 17  2  0  0  0  0
 16 17  1  0  0  0  0
M  END
