
 OpenBabel10141418123D

  6  5  0  0  0  0  0  0  0  0999 V2000
    1.5182   -0.7050   -0.6708 O   0  0  0  0  0  0  0  0  0  0  0  0
    2.7271    1.2490   -1.8201 O   0  0  0  0  0  0  0  0  0  0  0  0
    3.1805   -0.8766    0.8857 O   0  0  0  0  0  0  0  0  0  0  0  0
    3.3236    0.8056   -0.8427 C   0  0  0  0  0  0  0  0  0  0  0  0
    4.6327    1.3099   -0.3231 C   0  0  0  0  0  0  0  0  0  0  0  0
    2.6836   -0.3580   -0.0925 C   0  0  0  0  0  0  0  0  0  0  0  0
  1  6  1  0  0  0  0
  2  4  2  0  0  0  0
  3  6  2  0  0  0  0
  4  5  1  0  0  0  0
  4  6  1  0  0  0  0
M  END
