1589
 OpenBabel10141417503D

 25 27  0  0  0  0  0  0  0  0999 V2000
    0.8696    0.1579   -0.6691 Cl  0  0  0  0  0  0  0  0  0  0  0  0
    9.3390    0.9109   -0.7046 S   0  0  0  0  0  0  0  0  0  0  0  0
    7.7006   -2.2707   -1.3885 F   0  0  0  0  0  0  0  0  0  0  0  0
    9.1450   -2.6370    0.2117 F   0  0  0  0  0  0  0  0  0  0  0  0
    7.1288   -3.4466    0.3486 F   0  0  0  0  0  0  0  0  0  0  0  0
    4.0261    1.5209    2.6349 F   0  0  0  0  0  0  0  0  0  0  0  0
    6.8162   -0.0024   -0.1219 N   0  0  0  0  0  0  0  0  0  0  0  0
    6.3896    2.9960   -0.3480 N   0  0  0  0  0  0  0  0  0  0  0  0
    5.3856    0.0709   -0.2225 C   0  0  0  0  0  0  0  0  0  0  0  0
    4.6674    1.2751   -0.0763 C   0  0  0  0  0  0  0  0  0  0  0  0
    5.3424    2.5562    0.2758 C   0  0  0  0  0  0  0  0  0  0  0  0
    7.3669   -1.1198    0.6967 C   0  0  0  0  0  0  0  0  0  0  0  0
    7.6511    0.9700   -0.7014 C   0  0  0  0  0  0  0  0  0  0  0  0
    6.9649    2.1509   -1.3968 C   0  0  0  0  0  0  0  0  0  0  0  0
    4.6590   -1.1026   -0.4912 C   0  0  0  0  0  0  0  0  0  0  0  0
    3.2705    1.3010   -0.2339 C   0  0  0  0  0  0  0  0  0  0  0  0
    4.7853    3.4026    1.3780 C   0  0  0  0  0  0  0  0  0  0  0  0
    7.8480   -2.3658   -0.0499 C   0  0  0  0  0  0  0  0  0  0  0  0
    3.2673   -1.0755   -0.6322 C   0  0  0  0  0  0  0  0  0  0  0  0
    2.5802    0.1252   -0.5015 C   0  0  0  0  0  0  0  0  0  0  0  0
    4.1364    2.8492    2.4866 C   0  0  0  0  0  0  0  0  0  0  0  0
    4.9287    4.7951    1.3047 C   0  0  0  0  0  0  0  0  0  0  0  0
    3.5947    3.6640    3.4797 C   0  0  0  0  0  0  0  0  0  0  0  0
    4.3925    5.6137    2.3027 C   0  0  0  0  0  0  0  0  0  0  0  0
    3.7175    5.0492    3.3852 C   0  0  0  0  0  0  0  0  0  0  0  0
  1 20  1  0  0  0  0
  2 13  2  0  0  0  0
  3 18  1  0  0  0  0
  4 18  1  0  0  0  0
  5 18  1  0  0  0  0
  6 21  1  0  0  0  0
  7  9  1  0  0  0  0
  7 12  1  0  0  0  0
  7 13  1  0  0  0  0
  8 11  2  0  0  0  0
  8 14  1  0  0  0  0
  9 10  2  0  0  0  0
  9 15  1  0  0  0  0
 10 11  1  0  0  0  0
 10 16  1  0  0  0  0
 11 17  1  0  0  0  0
 12 18  1  0  0  0  0
 13 14  1  0  0  0  0
 15 19  2  0  0  0  0
 16 20  2  0  0  0  0
 17 21  1  0  0  0  0
 17 22  2  0  0  0  0
 19 20  1  0  0  0  0
 21 23  2  0  0  0  0
 22 24  1  0  0  0  0
 23 25  1  0  0  0  0
 24 25  2  0  0  0  0
M  END
