1103
 OpenBabel10141417503D

 28 30  0  0  1  0  0  0  0  0999 V2000
    2.0886   -0.0479   -4.3706 Cl  0  0  0  0  0  0  0  0  0  0  0  0
    9.5809   -3.1345    2.0091 O   0  0  0  0  0  0  0  0  0  0  0  0
    7.7663    2.1570    5.3157 N   0  0  0  0  0  0  0  0  0  0  0  0
    7.3204    0.9956    0.0021 N   0  0  0  0  0  0  0  0  0  0  0  0
    5.2156   -2.4295   -1.2808 N   0  0  0  0  0  0  0  0  0  0  0  0
    6.7455    2.3185    0.2839 C   0  0  3  0  0  0  0  0  0  0  0  0
    6.2533    2.4415    1.7402 C   0  0  0  0  0  0  0  0  0  0  0  0
    7.3372    2.2413    2.8110 C   0  0  0  0  0  0  0  0  0  0  0  0
    6.7799    2.3778    4.2345 C   0  0  0  0  0  0  0  0  0  0  0  0
    6.6134   -0.1268   -0.4719 C   0  0  0  0  0  0  0  0  0  0  0  0
    7.8185    3.3531   -0.0712 C   0  0  0  0  0  0  0  0  0  0  0  0
    7.1769    2.4594    6.6325 C   0  0  0  0  0  0  0  0  0  0  0  0
    8.4541    0.8561    5.2466 C   0  0  0  0  0  0  0  0  0  0  0  0
    7.0188   -1.4371   -0.0213 C   0  0  0  0  0  0  0  0  0  0  0  0
    5.5842   -0.0515   -1.4687 C   0  0  0  0  0  0  0  0  0  0  0  0
    6.2845   -2.5347   -0.4858 C   0  0  0  0  0  0  0  0  0  0  0  0
    4.8858   -1.2304   -1.7684 C   0  0  0  0  0  0  0  0  0  0  0  0
    5.9564    1.6415    7.0532 C   0  0  0  0  0  0  0  0  0  0  0  0
    9.4837    0.5919    6.3508 C   0  0  0  0  0  0  0  0  0  0  0  0
    8.1225   -1.7165    0.8461 C   0  0  0  0  0  0  0  0  0  0  0  0
    5.2445    1.1007   -2.2314 C   0  0  0  0  0  0  0  0  0  0  0  0
    6.6630   -3.8281   -0.1408 C   0  0  0  0  0  0  0  0  0  0  0  0
    3.8107   -1.2097   -2.6483 C   0  0  0  0  0  0  0  0  0  0  0  0
    8.4792   -3.0226    1.2042 C   0  0  0  0  0  0  0  0  0  0  0  0
    7.7609   -4.0808    0.6854 C   0  0  0  0  0  0  0  0  0  0  0  0
    4.1589    1.1168   -3.1090 C   0  0  0  0  0  0  0  0  0  0  0  0
    3.4303   -0.0391   -3.2942 C   0  0  0  0  0  0  0  0  0  0  0  0
    9.6209   -4.2917    2.8394 C   0  0  0  0  0  0  0  0  0  0  0  0
  1 27  1  0  0  0  0
  2 24  1  0  0  0  0
  2 28  1  0  0  0  0
  3  9  1  0  0  0  0
  3 12  1  0  0  0  0
  3 13  1  0  0  0  0
  4  6  1  0  0  0  0
  4 10  1  0  0  0  0
  5 16  2  0  0  0  0
  5 17  1  0  0  0  0
  6  7  1  0  0  0  0
  6 11  1  0  0  0  0
  7  8  1  0  0  0  0
  8  9  1  0  0  0  0
 10 14  2  0  0  0  0
 10 15  1  0  0  0  0
 12 18  1  0  0  0  0
 13 19  1  0  0  0  0
 14 16  1  0  0  0  0
 14 20  1  0  0  0  0
 15 17  2  0  0  0  0
 15 21  1  0  0  0  0
 16 22  1  0  0  0  0
 17 23  1  0  0  0  0
 20 24  2  0  0  0  0
 21 26  2  0  0  0  0
 22 25  2  0  0  0  0
 23 27  2  0  0  0  0
 24 25  1  0  0  0  0
 26 27  1  0  0  0  0
M  END
