
 OpenBabel10141417483D

 24 27  0  0  0  0  0  0  0  0999 V2000
    3.3500    6.2129   -1.1834 C   0  0  0  0  0  0  0  0  0  0  0  0
    3.5117    4.9840   -1.8171 C   0  0  0  0  0  0  0  0  0  0  0  0
    2.9728    3.8354   -1.2474 C   0  0  0  0  0  0  0  0  0  0  0  0
    2.2661    3.9376   -0.0459 C   0  0  0  0  0  0  0  0  0  0  0  0
    2.0680    5.1835    0.6021 C   0  0  0  0  0  0  0  0  0  0  0  0
    2.6526    6.3371    0.0043 C   0  0  0  0  0  0  0  0  0  0  0  0
    2.5712    7.5618    0.5342 N   0  0  0  0  0  0  0  0  0  0  0  0
    1.3489    5.3650    1.8188 C   0  0  0  0  0  0  0  0  0  0  0  0
    1.3014    6.6602    2.3614 C   0  0  0  0  0  0  0  0  0  0  0  0
    1.9215    7.7029    1.6995 C   0  0  0  0  0  0  0  0  0  0  0  0
   -1.8274    5.0952    2.5278 C   0  0  0  0  0  0  0  0  0  0  0  0
   -2.7279    2.4194    1.9378 C   0  0  0  0  0  0  0  0  0  0  0  0
   -3.7837    3.4854    2.3443 C   0  0  2  0  0  0  0  0  0  0  0  0
   -2.5799    3.7918    4.4970 C   0  0  0  0  0  0  0  0  0  0  0  0
   -4.4700    4.1318    1.1572 C   0  0  0  0  0  0  0  0  0  0  0  0
   -3.0758    4.5303    3.2406 C   0  0  1  0  0  0  0  0  0  0  0  0
   -1.4127    2.6368    2.6171 N   0  0  2  0  0  0  0  0  0  0  0  0
   -1.6648    2.6316    4.0755 C   0  0  0  0  0  0  0  0  0  0  0  0
   -5.7846    4.1205    0.9482 C   0  0  0  0  0  0  0  0  0  0  0  0
   -0.8483    3.9539    2.1495 C   0  0  2  0  0  0  0  0  0  0  0  0
    0.6568    4.2230    2.5741 C   0  0  2  0  0  0  0  0  0  0  0  0
    0.8249    4.4801    3.9759 O   0  0  0  0  0  0  0  0  0  0  0  0
    3.2012    2.6881   -1.9541 O   0  0  0  0  0  0  0  0  0  0  0  0
    2.6755    1.4858   -1.4064 C   0  0  0  0  0  0  0  0  0  0  0  0
  1  2  1  0  0  0  0
  1  6  2  0  0  0  0
  3 23  1  0  0  0  0
  3  2  2  0  0  0  0
  4  3  1  0  0  0  0
  5  4  2  0  0  0  0
  6  5  1  0  0  0  0
  6  7  1  0  0  0  0
  7 10  2  0  0  0  0
  8  5  1  0  0  0  0
  8  9  2  0  0  0  0
 10  9  1  0  0  0  0
 12 13  1  0  0  0  0
 13 15  1  6  0  0  0
 14 18  1  0  0  0  0
 15 19  2  0  0  0  0
 16 11  1  6  0  0  0
 16 13  1  0  0  0  0
 16 14  1  0  0  0  0
 17 18  1  1  0  0  0
 17 12  1  0  0  0  0
 20 11  1  1  0  0  0
 20 17  1  0  0  0  0
 20 21  1  0  0  0  0
 21 22  1  1  0  0  0
 21  8  1  0  0  0  0
 23 24  1  0  0  0  0
M  END
