
 OpenBabel10141417523D

 73 80  0  0  1  0  0  0  0  0999 V2000
   -0.6950   -1.2374    1.6295 N   0  0  0  0  0  0  0  0  0  0  0  0
   -1.5972   -0.0818    1.8782 C   0  0  3  0  0  0  0  0  0  0  0  0
   -1.3361   -2.5013    1.7041 C   0  0  0  0  0  0  0  0  0  0  0  0
    0.2470   -1.0589    0.4998 C   0  0  0  0  0  0  0  0  0  0  0  0
   -2.4578   -0.0279    3.1652 C   0  0  0  0  0  0  0  0  0  0  0  0
   -0.8802    1.2682    1.8018 C   0  0  0  0  0  0  0  0  0  0  0  0
    0.9994    0.2759    0.4629 C   0  0  3  0  0  0  0  0  0  0  0  0
   -2.0737   -0.3567    4.4157 N   0  0  0  0  0  0  0  0  0  0  0  0
   -3.5695    0.5223    3.1086 O   0  0  0  0  0  0  0  0  0  0  0  0
   -0.0870    1.3162    0.5325 C   0  0  0  0  0  0  0  0  0  0  0  0
    1.8673    0.3755   -0.7960 C   0  0  0  0  0  0  0  0  0  0  0  0
   -0.8309   -0.7733    5.0772 C   0  0  1  0  0  0  0  0  0  0  0  0
   -0.3513    2.0947   -0.3782 O   0  0  0  0  0  0  0  0  0  0  0  0
    3.2639    1.5474   -0.5920 S   0  0  0  0  0  0  0  0  0  0  0  0
   -1.1014   -1.8578    6.1309 C   0  0  0  0  0  0  0  0  0  0  0  0
   -0.1088    0.4262    5.7551 C   0  0  0  0  0  0  0  0  0  0  0  0
    4.0475    1.4013   -2.2517 C   0  0  1  0  0  0  0  0  0  0  0  0
   -2.2713   -1.8521    6.9135 C   0  0  0  0  0  0  0  0  0  0  0  0
   -0.1485   -2.8568    6.3980 C   0  0  0  0  0  0  0  0  0  0  0  0
    0.0710    1.4697    4.8862 O   0  0  0  0  0  0  0  0  0  0  0  0
    0.3857    0.4075    6.8623 O   0  0  0  0  0  0  0  0  0  0  0  0
    5.2921    2.3131   -2.4021 C   0  0  3  0  0  0  0  0  0  0  0  0
    4.4740   -0.0511   -2.5826 C   0  0  0  0  0  0  0  0  0  0  0  0
   -2.5126   -2.8394    7.8711 C   0  0  0  0  0  0  0  0  0  0  0  0
   -0.4065   -3.8653    7.3362 C   0  0  0  0  0  0  0  0  0  0  0  0
    1.0121    2.4864    5.3273 C   0  0  1  0  0  0  0  0  0  0  0  0
    6.4677    1.7631   -1.5733 C   0  0  0  0  0  0  0  0  0  0  0  0
    5.7315    2.2278   -3.8798 C   0  0  0  0  0  0  0  0  0  0  0  0
    5.8665   -0.1379   -3.0834 N   0  0  3  0  0  0  0  0  0  0  0  0
   -1.5912   -3.8601    8.0671 C   0  0  0  0  0  0  0  0  0  0  0  0
    2.4777    1.9496    5.3005 C   0  0  2  0  0  0  0  0  0  0  0  0
    6.7685    0.3180   -2.0013 C   0  0  0  0  0  0  0  0  0  0  0  0
    6.0184    0.7619   -4.2461 C   0  0  0  0  0  0  0  0  0  0  0  0
    3.4551    2.9623    5.7365 N   0  0  0  0  0  0  0  0  0  0  0  0
    3.8991    3.0758    7.0341 C   0  0  0  0  0  0  0  0  0  0  0  0
    4.9609    4.0998    7.3143 C   0  0  0  0  0  0  0  0  0  0  0  0
    3.5043    2.3462    7.9503 O   0  0  0  0  0  0  0  0  0  0  0  0
    5.7612    3.9787    8.4576 C   0  0  0  0  0  0  0  0  0  0  0  0
    5.1243    5.0865    6.3882 N   0  0  0  0  0  0  0  0  0  0  0  0
    6.8019    4.8811    8.6461 C   0  0  0  0  0  0  0  0  0  0  0  0
    5.6022    3.0096    9.4103 O   0  0  0  0  0  0  0  0  0  0  0  0
    6.1254    5.9708    6.6325 C   0  0  0  0  0  0  0  0  0  0  0  0
    6.9904    5.8997    7.7182 C   0  0  0  0  0  0  0  0  0  0  0  0
   -0.4779   -3.8035    1.5682 C   0  0  1  0  0  0  0  0  0  0  0  0
   -2.5401   -2.5830    1.9634 O   0  0  0  0  0  0  0  0  0  0  0  0
   -0.2385   -4.4343    2.8965 N   0  0  0  0  0  0  0  0  0  0  0  0
   -1.1719   -4.7780    0.5823 C   0  0  0  0  0  0  0  0  0  0  0  0
   -0.4059   -6.0655    0.3648 C   0  0  0  0  0  0  0  0  0  0  0  0
   -0.6270   -7.1785    1.1793 C   0  0  0  0  0  0  0  0  0  0  0  0
    0.0904   -8.3606    0.9890 C   0  0  0  0  0  0  0  0  0  0  0  0
    1.0291   -8.5019   -0.0419 C   0  0  0  0  0  0  0  0  0  0  0  0
    1.2599   -7.3654   -0.8335 C   0  0  0  0  0  0  0  0  0  0  0  0
    0.5567   -6.1673   -0.6387 C   0  0  0  0  0  0  0  0  0  0  0  0
    1.6976   -9.7249   -0.2285 N   0  0  0  0  0  0  0  0  0  0  0  0
    2.7003   -9.8032   -1.2881 C   0  0  0  0  0  0  0  0  0  0  0  0
    0.8284  -10.9040   -0.1245 C   0  0  0  0  0  0  0  0  0  0  0  0
    1.0091   -4.7734    3.4247 C   0  0  0  0  0  0  0  0  0  0  0  0
   -1.4309   -4.8185    3.6603 C   0  0  0  0  0  0  0  0  0  0  0  0
    1.1006   -5.3466    4.5191 O   0  0  0  0  0  0  0  0  0  0  0  0
    2.8873    1.4769    3.8983 C   0  0  0  0  0  0  0  0  0  0  0  0
    3.3574    0.2209    3.6586 N   0  0  0  0  0  0  0  0  0  0  0  0
    2.9015    2.2619    2.9444 O   0  0  0  0  0  0  0  0  0  0  0  0
    0.7579    3.7371    4.4753 C   0  0  0  0  0  0  0  0  0  0  0  0
    3.4453   -1.0333    4.4606 C   0  0  1  0  0  0  0  0  0  0  0  0
    2.8041   -2.1405    3.5541 C   0  0  0  0  0  0  0  0  0  0  0  0
    4.8500   -1.1656    5.0413 C   0  0  0  0  0  0  0  0  0  0  0  0
    5.9820   -1.1975    4.0223 C   0  0  0  0  0  0  0  0  0  0  0  0
    1.8363   -1.7855    2.8612 O   0  0  0  0  0  0  0  0  0  0  0  0
    3.1352   -3.4725    3.5281 N   0  0  0  0  0  0  0  0  0  0  0  0
    2.3233   -4.3879    2.6869 C   0  0  1  0  0  0  0  0  0  0  0  0
    4.3899   -4.1154    3.8703 C   0  0  0  0  0  0  0  0  0  0  0  0
    4.1677   -5.6014    3.6552 C   0  0  0  0  0  0  0  0  0  0  0  0
    3.2090   -5.6254    2.4755 C   0  0  0  0  0  0  0  0  0  0  0  0
  1  2  1  0  0  0  0
  1  3  1  0  0  0  0
  1  4  1  0  0  0  0
  2  5  1  0  0  0  0
  2  6  1  0  0  0  0
  3 44  1  0  0  0  0
  3 45  2  0  0  0  0
  4  7  1  0  0  0  0
  5  8  1  0  0  0  0
  5  9  2  0  0  0  0
  6 10  1  0  0  0  0
  7 10  1  0  0  0  0
  7 11  1  0  0  0  0
  8 12  1  0  0  0  0
 10 13  2  0  0  0  0
 11 14  1  0  0  0  0
 12 16  1  0  0  0  0
 12 15  1  6  0  0  0
 15 18  2  0  0  0  0
 15 19  1  0  0  0  0
 16 20  1  0  0  0  0
 16 21  2  0  0  0  0
 17 14  1  1  0  0  0
 17 22  1  0  0  0  0
 17 23  1  0  0  0  0
 18 24  1  0  0  0  0
 19 25  2  0  0  0  0
 20 26  1  0  0  0  0
 22 27  1  0  0  0  0
 22 28  1  0  0  0  0
 23 29  1  0  0  0  0
 24 30  2  0  0  0  0
 25 30  1  0  0  0  0
 26 31  1  0  0  0  0
 26 63  1  6  0  0  0
 27 32  1  0  0  0  0
 28 33  1  0  0  0  0
 29 32  1  0  0  0  0
 29 33  1  0  0  0  0
 31 60  1  0  0  0  0
 31 34  1  6  0  0  0
 34 35  1  0  0  0  0
 35 36  1  0  0  0  0
 35 37  2  0  0  0  0
 36 38  1  0  0  0  0
 36 39  2  0  0  0  0
 38 40  2  0  0  0  0
 38 41  1  0  0  0  0
 39 42  1  0  0  0  0
 40 43  1  0  0  0  0
 42 43  2  0  0  0  0
 44 46  1  0  0  0  0
 44 47  1  6  0  0  0
 46 57  1  0  0  0  0
 46 58  1  0  0  0  0
 47 48  1  0  0  0  0
 48 49  2  0  0  0  0
 48 53  1  0  0  0  0
 49 50  1  0  0  0  0
 50 51  2  0  0  0  0
 51 52  1  0  0  0  0
 51 54  1  0  0  0  0
 52 53  2  0  0  0  0
 54 55  1  0  0  0  0
 54 56  1  0  0  0  0
 57 70  1  0  0  0  0
 57 59  2  0  0  0  0
 60 61  1  0  0  0  0
 60 62  2  0  0  0  0
 61 64  1  0  0  0  0
 64 65  1  0  0  0  0
 64 66  1  6  0  0  0
 65 68  2  0  0  0  0
 66 67  1  0  0  0  0
 69 71  1  0  0  0  0
 69 65  1  0  0  0  0
 70 69  1  1  0  0  0
 70 73  1  0  0  0  0
 71 72  1  0  0  0  0
 72 73  1  0  0  0  0
M  END
