1325
 OpenBabel10141417523D

 18 19  0  0  1  0  0  0  0  0999 V2000
    0.9306    0.2458   -0.0231 Cl  0  0  0  0  0  0  0  0  0  0  0  0
    2.3020   -2.6777    0.0421 S   0  0  0  0  0  0  0  0  0  0  0  0
    7.4969   -1.2436   -0.2652 O   0  0  0  0  0  0  0  0  0  0  0  0
    1.6625   -2.7618    1.3347 O   0  0  0  0  0  0  0  0  0  0  0  0
    1.5958   -2.8114   -1.2082 O   0  0  0  0  0  0  0  0  0  0  0  0
    5.5743    2.3120   -0.2401 N   0  0  0  0  0  0  0  0  0  0  0  0
    7.5421    1.0208   -0.3076 N   0  0  0  0  0  0  0  0  0  0  0  0
    3.4197   -3.9356    0.0375 N   0  0  0  0  0  0  0  0  0  0  0  0
    6.9572    2.2297    0.1953 C   0  0  3  0  0  0  0  0  0  0  0  0
    4.8178    1.1439   -0.0909 C   0  0  0  0  0  0  0  0  0  0  0  0
    7.7241    3.4706   -0.2768 C   0  0  0  0  0  0  0  0  0  0  0  0
    5.4235   -0.1172   -0.0983 C   0  0  0  0  0  0  0  0  0  0  0  0
    6.8931   -0.1796   -0.2202 C   0  0  0  0  0  0  0  0  0  0  0  0
    4.6686   -1.2918   -0.0417 C   0  0  0  0  0  0  0  0  0  0  0  0
    3.2726   -1.2092   -0.0076 C   0  0  0  0  0  0  0  0  0  0  0  0
    3.4210    1.2066   -0.0968 C   0  0  0  0  0  0  0  0  0  0  0  0
    2.6450    0.0392   -0.0401 C   0  0  0  0  0  0  0  0  0  0  0  0
    7.7369    3.6353   -1.7937 C   0  0  0  0  0  0  0  0  0  0  0  0
  1 17  1  0  0  0  0
  2  4  2  0  0  0  0
  2  5  2  0  0  0  0
  2  8  1  0  0  0  0
  2 15  1  0  0  0  0
  3 13  2  0  0  0  0
  6  9  1  0  0  0  0
  6 10  1  0  0  0  0
  7  9  1  0  0  0  0
  7 13  1  0  0  0  0
  9 11  1  0  0  0  0
 10 12  1  0  0  0  0
 10 16  2  0  0  0  0
 11 18  1  0  0  0  0
 12 13  1  0  0  0  0
 12 14  2  0  0  0  0
 14 15  1  0  0  0  0
 15 17  2  0  0  0  0
 16 17  1  0  0  0  0
M  END
