881
 OpenBabel10141417503D

 32 34  0  0  1  0  0  0  0  0999 V2000
    3.9521    0.8996   -0.8867 O   0  0  0  0  0  0  0  0  0  0  0  0
    1.3479    3.1069   -1.3129 O   0  0  0  0  0  0  0  0  0  0  0  0
    1.0666    3.5377   -3.5022 O   0  0  0  0  0  0  0  0  0  0  0  0
    4.3688   -3.6982    2.6410 O   0  0  0  0  0  0  0  0  0  0  0  0
    5.0699   -4.3128    0.5356 O   0  0  0  0  0  0  0  0  0  0  0  0
    1.8947    0.4346   -1.7368 N   0  0  0  0  0  0  0  0  0  0  0  0
    3.0969   -2.1096   -0.1220 N   0  0  0  0  0  0  0  0  0  0  0  0
    2.0815    1.3916   -2.8640 C   0  0  1  0  0  0  0  0  0  0  0  0
    1.6067    0.7740   -4.1850 C   0  0  0  0  0  0  0  0  0  0  0  0
    0.5414   -0.0853   -1.5560 C   0  0  0  0  0  0  0  0  0  0  0  0
    0.2400    0.1481   -4.0715 C   0  0  0  0  0  0  0  0  0  0  0  0
   -0.2477   -0.2651   -2.8219 C   0  0  0  0  0  0  0  0  0  0  0  0
    2.6779   -0.7798    0.3483 C   0  0  2  0  0  0  0  0  0  0  0  0
    2.9101    0.2486   -0.8025 C   0  0  0  0  0  0  0  0  0  0  0  0
    2.9010   -3.1924    0.8640 C   0  0  1  0  0  0  0  0  0  0  0  0
    1.4154    2.7603   -2.6195 C   0  0  0  0  0  0  0  0  0  0  0  0
    2.0361   -4.3102    0.2615 C   0  0  0  0  0  0  0  0  0  0  0  0
   -0.5277   -0.0815   -5.2179 C   0  0  0  0  0  0  0  0  0  0  0  0
   -1.5087   -0.8748   -2.7367 C   0  0  0  0  0  0  0  0  0  0  0  0
    3.4348   -0.3297    1.5982 C   0  0  0  0  0  0  0  0  0  0  0  0
    1.7669   -5.4783    1.2274 C   0  0  0  0  0  0  0  0  0  0  0  0
   -1.7787   -0.6971   -5.1256 C   0  0  0  0  0  0  0  0  0  0  0  0
   -2.2689   -1.0921   -3.8811 C   0  0  0  0  0  0  0  0  0  0  0  0
    4.2704   -3.7672    1.2770 C   0  0  0  0  0  0  0  0  0  0  0  0
    0.8259   -6.5308    0.6827 C   0  0  0  0  0  0  0  0  0  0  0  0
    0.7727   -6.8346   -0.6849 C   0  0  0  0  0  0  0  0  0  0  0  0
    0.0333   -7.2822    1.5632 C   0  0  0  0  0  0  0  0  0  0  0  0
    5.3574   -4.5446    3.2432 C   0  0  0  0  0  0  0  0  0  0  0  0
   -0.0884   -7.8178   -1.1695 C   0  0  0  0  0  0  0  0  0  0  0  0
   -0.8235   -8.2742    1.0781 C   0  0  0  0  0  0  0  0  0  0  0  0
   -0.8911   -8.5341   -0.2892 C   0  0  0  0  0  0  0  0  0  0  0  0
    4.8957   -5.9898    3.1664 C   0  0  0  0  0  0  0  0  0  0  0  0
  1 14  2  0  0  0  0
  2 16  1  0  0  0  0
  3 16  2  0  0  0  0
  4 24  1  0  0  0  0
  4 28  1  0  0  0  0
  5 24  2  0  0  0  0
  6  8  1  0  0  0  0
  6 10  1  0  0  0  0
  6 14  1  0  0  0  0
  8  9  1  0  0  0  0
  8 16  1  1  0  0  0
  9 11  1  0  0  0  0
 10 12  1  0  0  0  0
 11 12  1  0  0  0  0
 11 18  2  0  0  0  0
 12 19  2  0  0  0  0
 13  7  1  6  0  0  0
 13 14  1  0  0  0  0
 13 20  1  0  0  0  0
 15  7  1  6  0  0  0
 15 17  1  0  0  0  0
 15 24  1  0  0  0  0
 17 21  1  0  0  0  0
 18 22  1  0  0  0  0
 19 23  1  0  0  0  0
 21 25  1  0  0  0  0
 22 23  2  0  0  0  0
 25 26  2  0  0  0  0
 25 27  1  0  0  0  0
 26 29  1  0  0  0  0
 27 30  2  0  0  0  0
 28 32  1  0  0  0  0
 29 31  2  0  0  0  0
 30 31  1  0  0  0  0
M  END
