
 OpenBabel10141417543D

 41 45  0  0  0  0  0  0  0  0999 V2000
    1.0836    2.3754   -1.0710 C   0  0  0  0  0  0  0  0  0  0  0  0
    2.2906    3.1183   -0.4888 C   0  0  0  0  0  0  0  0  0  0  0  0
    2.2790    3.2831    1.0588 C   0  0  0  0  0  0  0  0  0  0  0  0
    2.2470    1.8988    1.7224 C   0  0  0  0  0  0  0  0  0  0  0  0
    2.7222    0.8815    1.2167 O   0  0  0  0  0  0  0  0  0  0  0  0
    1.7121    1.8390    2.9787 N   0  0  0  0  0  0  0  0  0  0  0  0
    0.8101    2.7209    3.4849 C   0  0  0  0  0  0  0  0  0  0  0  0
    0.1434    2.4544    4.4742 O   0  0  0  0  0  0  0  0  0  0  0  0
    0.6070    3.8640    2.7774 N   0  0  0  0  0  0  0  0  0  0  0  0
    1.0426    4.0812    1.4986 C   0  0  0  0  0  0  0  0  0  0  0  0
    0.4877    4.9331    0.8039 O   0  0  0  0  0  0  0  0  0  0  0  0
    3.5722    4.0442    1.4826 C   0  0  0  0  0  0  0  0  0  0  0  0
    4.7640    3.3552    1.7832 C   0  0  0  0  0  0  0  0  0  0  0  0
    5.9133    4.0380    2.1947 C   0  0  0  0  0  0  0  0  0  0  0  0
    5.9066    5.4248    2.2959 C   0  0  0  0  0  0  0  0  0  0  0  0
    4.7530    6.1313    1.9754 C   0  0  0  0  0  0  0  0  0  0  0  0
    3.6013    5.4512    1.5661 C   0  0  0  0  0  0  0  0  0  0  0  0
    5.4483   -0.3302   -1.4541 C   0  0  0  0  0  0  0  0  0  0  0  0
    5.1739   -1.5326   -0.7378 O   0  0  0  0  0  0  0  0  0  0  0  0
    5.0994   -2.6681   -1.4972 C   0  0  0  0  0  0  0  0  0  0  0  0
    4.2549   -3.6783   -1.0149 C   0  0  0  0  0  0  0  0  0  0  0  0
    4.0903   -4.9146   -1.7001 C   0  0  0  0  0  0  0  0  0  0  0  0
    3.2340   -5.9914   -1.3046 C   0  0  0  0  0  0  0  0  0  0  0  0
    3.2065   -7.1430   -2.1099 C   0  0  0  0  0  0  0  0  0  0  0  0
    3.9807   -7.1940   -3.2509 C   0  0  0  0  0  0  0  0  0  0  0  0
    4.7859   -6.1969   -3.6488 N   0  0  0  0  0  0  0  0  0  0  0  0
    4.8419   -5.0966   -2.8905 C   0  0  0  0  0  0  0  0  0  0  0  0
    5.6922   -4.0975   -3.3323 C   0  0  0  0  0  0  0  0  0  0  0  0
    5.8308   -2.8884   -2.6541 C   0  0  0  0  0  0  0  0  0  0  0  0
    2.3491   -5.9629   -0.0622 C   0  0  3  0  0  0  0  0  0  0  0  0
    0.8146   -6.1329   -0.3534 C   0  0  3  0  0  0  0  0  0  0  0  0
    0.2262   -4.9813   -1.1961 C   0  0  0  0  0  0  0  0  0  0  0  0
   -0.9739   -4.3494   -0.4626 C   0  0  3  0  0  0  0  0  0  0  0  0
   -0.4489   -3.8975    0.9119 C   0  0  0  0  0  0  0  0  0  0  0  0
   -0.0368   -5.1325    1.7264 C   0  0  0  0  0  0  0  0  0  0  0  0
   -0.0035   -6.3582    0.8930 N   0  0  3  0  0  0  0  0  0  0  0  0
   -1.4021   -6.6475    0.4525 C   0  0  0  0  0  0  0  0  0  0  0  0
   -2.0714   -5.4154   -0.2145 C   0  0  3  0  0  0  0  0  0  0  0  0
   -2.8342   -5.7739   -1.4693 C   0  0  0  0  0  0  0  0  0  0  0  0
   -4.1322   -6.1059   -1.4803 C   0  0  0  0  0  0  0  0  0  0  0  0
    2.7577   -7.0430    0.7938 O   0  0  0  0  0  0  0  0  0  0  0  0
  1  2  1  0  0  0  0
  2  3  1  0  0  0  0
  3  4  1  0  0  0  0
  3 10  1  0  0  0  0
  3 12  1  0  0  0  0
  4  5  2  0  0  0  0
  4  6  1  0  0  0  0
  6  7  1  0  0  0  0
  7  8  2  0  0  0  0
  7  9  1  0  0  0  0
  9 10  1  0  0  0  0
 10 11  2  0  0  0  0
 12 13  2  0  0  0  0
 12 17  1  0  0  0  0
 13 14  1  0  0  0  0
 14 15  2  0  0  0  0
 15 16  1  0  0  0  0
 16 17  2  0  0  0  0
 18 19  1  0  0  0  0
 19 20  1  0  0  0  0
 20 21  2  0  0  0  0
 20 29  1  0  0  0  0
 21 22  1  0  0  0  0
 22 23  2  0  0  0  0
 22 27  1  0  0  0  0
 23 24  1  0  0  0  0
 23 30  1  0  0  0  0
 24 25  2  0  0  0  0
 25 26  1  0  0  0  0
 26 27  2  0  0  0  0
 27 28  1  0  0  0  0
 28 29  2  0  0  0  0
 30 31  1  0  0  0  0
 30 41  1  0  0  0  0
 31 32  1  0  0  0  0
 31 36  1  0  0  0  0
 32 33  1  0  0  0  0
 33 34  1  0  0  0  0
 33 38  1  0  0  0  0
 34 35  1  0  0  0  0
 35 36  1  0  0  0  0
 36 37  1  0  0  0  0
 37 38  1  0  0  0  0
 38 39  1  0  0  0  0
 39 40  2  0  0  0  0
M  END
