
 OpenBabel10141417523D

  3  2  0  0  0  0  0  0  0  0999 V2000
    0.9153   -0.0378    0.0373 Ra  0  0  0  0  0  0  0  0  0  0  0  0
   -2.3899   -0.0378    0.0373 Cl  0  0  0  0  0  0  0  0  0  0  0  0
    4.2204   -0.0378    0.0373 Cl  0  0  0  0  0  0  0  0  0  0  0  0
  1  2  1  0  0  0  0
  1  3  1  0  0  0  0
M  ISO  1   1 223
M  END
