
 OpenBabel10141417593D

 32 34  0  0  0  0  0  0  0  0999 V2000
    0.6517   -0.9730   -0.5509 C   0  0  0  0  0  0  0  0  0  0  0  0
    1.8834   -0.4172   -0.0108 N   0  0  0  0  0  0  0  0  0  0  0  0
    2.6919   -1.3613    0.5842 C   0  0  0  0  0  0  0  0  0  0  0  0
    2.3454   -2.5018    0.8991 O   0  0  0  0  0  0  0  0  0  0  0  0
    4.0956   -0.9930    0.8124 C   0  0  0  0  0  0  0  0  0  0  0  0
    4.9298   -2.0106    1.2293 O   0  0  0  0  0  0  0  0  0  0  0  0
    4.4268    0.2882    0.5812 C   0  0  0  0  0  0  0  0  0  0  0  0
    3.4960    1.2820    0.2712 N   0  0  0  0  0  0  0  0  0  0  0  0
    2.2684    0.9174   -0.0190 C   0  0  0  0  0  0  0  0  0  0  0  0
    1.1966    2.0783   -0.3320 C   0  0  0  0  0  0  0  0  0  0  0  0
    0.6624    1.9849   -1.7720 C   0  0  0  0  0  0  0  0  0  0  0  0
    0.0392    2.0042    0.6819 C   0  0  0  0  0  0  0  0  0  0  0  0
    1.8813    3.3862   -0.1557 N   0  0  0  0  0  0  0  0  0  0  0  0
    1.2775    4.6211   -0.3529 C   0  0  0  0  0  0  0  0  0  0  0  0
    0.0906    4.7201   -0.6957 O   0  0  0  0  0  0  0  0  0  0  0  0
    2.1111    5.7841   -0.1708 C   0  0  0  0  0  0  0  0  0  0  0  0
    3.2098    5.8914    0.5550 N   0  0  0  0  0  0  0  0  0  0  0  0
    3.6294    7.2058    0.4187 N   0  0  0  0  0  0  0  0  0  0  0  0
    2.7749    7.7882   -0.3982 C   0  0  0  0  0  0  0  0  0  0  0  0
    2.7342    9.1635   -0.9236 C   0  0  0  0  0  0  0  0  0  0  0  0
    1.7810    6.9503   -0.8102 O   0  0  0  0  0  0  0  0  0  0  0  0
    5.9063    0.6429    0.6952 C   0  0  0  0  0  0  0  0  0  0  0  0
    6.8116   -0.1791    0.5684 O   0  0  0  0  0  0  0  0  0  0  0  0
    6.1566    1.9755    0.9262 N   0  0  0  0  0  0  0  0  0  0  0  0
    7.4947    2.5080    1.1084 C   0  0  0  0  0  0  0  0  0  0  0  0
    7.9348    2.5417    2.5570 C   0  0  0  0  0  0  0  0  0  0  0  0
    8.2424    3.7632    3.1817 C   0  0  0  0  0  0  0  0  0  0  0  0
    8.6963    3.7934    4.5040 C   0  0  0  0  0  0  0  0  0  0  0  0
    8.8446    2.6047    5.2070 C   0  0  0  0  0  0  0  0  0  0  0  0
    9.2843    2.6353    6.4723 F   0  0  0  0  0  0  0  0  0  0  0  0
    8.5516    1.3853    4.6120 C   0  0  0  0  0  0  0  0  0  0  0  0
    8.1033    1.3533    3.2889 C   0  0  0  0  0  0  0  0  0  0  0  0
  1  2  1  0  0  0  0
  2  3  1  0  0  0  0
  2  9  1  0  0  0  0
  3  4  2  0  0  0  0
  3  5  1  0  0  0  0
  5  6  1  0  0  0  0
  5  7  2  0  0  0  0
  7  8  1  0  0  0  0
  7 22  1  0  0  0  0
  8  9  2  0  0  0  0
  9 10  1  0  0  0  0
 10 11  1  0  0  0  0
 10 12  1  0  0  0  0
 10 13  1  0  0  0  0
 13 14  1  0  0  0  0
 14 15  2  0  0  0  0
 14 16  1  0  0  0  0
 16 17  2  0  0  0  0
 16 21  1  0  0  0  0
 17 18  1  0  0  0  0
 18 19  2  0  0  0  0
 19 20  1  0  0  0  0
 19 21  1  0  0  0  0
 22 23  2  0  0  0  0
 22 24  1  0  0  0  0
 24 25  1  0  0  0  0
 25 26  1  0  0  0  0
 26 27  2  0  0  0  0
 26 32  1  0  0  0  0
 27 28  1  0  0  0  0
 28 29  2  0  0  0  0
 29 30  1  0  0  0  0
 29 31  1  0  0  0  0
 31 32  2  0  0  0  0
M  END
