293
 OpenBabel10141417483D

 32 34  0  0  1  0  0  0  0  0999 V2000
    1.1598   -0.6702    0.4342 S   0  0  0  0  0  0  0  0  0  0  0  0
    2.8731    3.7682    1.3385 O   0  0  0  0  0  0  0  0  0  0  0  0
    2.1656    1.3417    3.6349 O   0  0  0  0  0  0  0  0  0  0  0  0
    5.0712    4.0679    0.9691 O   0  0  0  0  0  0  0  0  0  0  0  0
   -1.7723    0.7726   -4.4609 O   0  0  0  0  0  0  0  0  0  0  0  0
    4.1220    0.3493   -1.4393 O   0  0  0  0  0  0  0  0  0  0  0  0
    4.8041   -1.2376    0.0043 O   0  0  0  0  0  0  0  0  0  0  0  0
   -0.6478   -2.6424   -0.1719 N   0  0  0  0  0  0  0  0  0  0  0  0
    3.1973    1.1137    1.6392 N   0  0  0  0  0  0  0  0  0  0  0  0
   -3.4357   -2.5438   -5.9299 N   0  0  0  0  0  0  0  0  0  0  0  0
   -3.0778   -0.2015   -6.0589 N   0  0  0  0  0  0  0  0  0  0  0  0
    0.0652   -2.9619   -1.4161 C   0  0  0  0  0  0  0  0  0  0  0  0
    4.3551    1.9459    1.9555 C   0  0  1  0  0  0  0  0  0  0  0  0
   -0.8474   -2.8751   -2.6217 C   0  0  0  0  0  0  0  0  0  0  0  0
    5.6826    1.2684    1.5636 C   0  0  0  0  0  0  0  0  0  0  0  0
   -0.2127   -1.6760    0.7019 C   0  0  0  0  0  0  0  0  0  0  0  0
   -1.9612   -1.5471   -4.3111 C   0  0  0  0  0  0  0  0  0  0  0  0
   -1.0927   -1.6341   -3.2200 C   0  0  0  0  0  0  0  0  0  0  0  0
   -2.5704   -2.6869   -4.8438 C   0  0  0  0  0  0  0  0  0  0  0  0
    5.8695    0.9364    0.0799 C   0  0  0  0  0  0  0  0  0  0  0  0
   -1.4968   -4.0134   -3.1262 C   0  0  0  0  0  0  0  0  0  0  0  0
    1.1171   -0.0065    2.0032 C   0  0  0  0  0  0  0  0  0  0  0  0
   -2.3573   -3.9198   -4.2250 C   0  0  0  0  0  0  0  0  0  0  0  0
    2.1745    0.8386    2.5136 C   0  0  0  0  0  0  0  0  0  0  0  0
   -1.9055   -3.3344    0.0916 C   0  0  0  0  0  0  0  0  0  0  0  0
   -0.7814   -1.3338    1.9200 C   0  0  0  0  0  0  0  0  0  0  0  0
   -0.0336   -0.3762    2.6588 C   0  0  0  0  0  0  0  0  0  0  0  0
    4.1682    3.3531    1.3503 C   0  0  0  0  0  0  0  0  0  0  0  0
   -2.2688   -0.2394   -4.9449 C   0  0  0  0  0  0  0  0  0  0  0  0
   -3.6000   -1.3031   -6.4941 C   0  0  0  0  0  0  0  0  0  0  0  0
    4.9231   -0.1107   -0.4492 C   0  0  0  0  0  0  0  0  0  0  0  0
   -4.4200   -1.2097   -7.7584 C   0  0  0  0  0  0  0  0  0  0  0  0
  1 16  1  0  0  0  0
  1 22  1  0  0  0  0
  2 28  1  0  0  0  0
  3 24  2  0  0  0  0
  4 28  2  0  0  0  0
  5 29  2  0  0  0  0
  6 31  1  0  0  0  0
  7 31  2  0  0  0  0
  8 12  1  0  0  0  0
  8 16  1  0  0  0  0
  8 25  1  0  0  0  0
  9 24  1  0  0  0  0
 10 19  1  0  0  0  0
 10 30  1  0  0  0  0
 11 29  1  0  0  0  0
 11 30  2  0  0  0  0
 12 14  1  0  0  0  0
 13  9  1  6  0  0  0
 13 15  1  0  0  0  0
 13 28  1  0  0  0  0
 14 18  2  0  0  0  0
 14 21  1  0  0  0  0
 15 20  1  0  0  0  0
 16 26  2  0  0  0  0
 17 18  1  0  0  0  0
 17 19  2  0  0  0  0
 17 29  1  0  0  0  0
 19 23  1  0  0  0  0
 20 31  1  0  0  0  0
 21 23  2  0  0  0  0
 22 24  1  0  0  0  0
 22 27  2  0  0  0  0
 26 27  1  0  0  0  0
 30 32  1  0  0  0  0
M  END
