980
 OpenBabel10141417483D

 19 21  0  0  1  0  0  0  0  0999 V2000
   -2.8476   -0.6395   -0.0407 O   0  0  0  0  0  0  0  0  0  0  0  0
    4.7286    0.4615   -3.8050 O   0  0  0  0  0  0  0  0  0  0  0  0
    2.5433    1.1458   -3.6508 N   0  0  0  0  0  0  0  0  0  0  0  0
    1.7138    1.2530    0.1061 C   0  0  1  0  0  0  0  0  0  0  0  0
    0.6038    0.2526    0.1928 C   0  0  0  0  0  0  0  0  0  0  0  0
    2.9113    0.4640    0.7088 C   0  0  0  0  0  0  0  0  0  0  0  0
    2.5641   -1.0458    0.6411 C   0  0  0  0  0  0  0  0  0  0  0  0
    1.0720   -1.0536    0.4516 C   0  0  0  0  0  0  0  0  0  0  0  0
    1.9476    1.7224   -1.3381 C   0  0  0  0  0  0  0  0  0  0  0  0
   -0.7820    0.3653    0.0783 C   0  0  0  0  0  0  0  0  0  0  0  0
   -1.6849    1.5024   -0.1287 C   0  0  0  0  0  0  0  0  0  0  0  0
   -1.4822   -0.8398    0.1303 C   0  0  0  0  0  0  0  0  0  0  0  0
    0.3544   -2.2375    0.5030 C   0  0  0  0  0  0  0  0  0  0  0  0
    2.3294    0.6122   -2.3199 C   0  0  0  0  0  0  0  0  0  0  0  0
   -3.0401    0.7988    0.0138 C   0  0  0  0  0  0  0  0  0  0  0  0
   -1.0000   -2.1227    0.3079 C   0  0  0  0  0  0  0  0  0  0  0  0
    3.7468    1.0073   -4.3038 C   0  0  0  0  0  0  0  0  0  0  0  0
    3.7458    1.6033   -5.6946 C   0  0  0  0  0  0  0  0  0  0  0  0
    5.0999    1.4641   -6.3694 C   0  0  0  0  0  0  0  0  0  0  0  0
  1 12  1  0  0  0  0
  1 15  1  0  0  0  0
  2 17  2  0  0  0  0
  3 14  1  0  0  0  0
  3 17  1  0  0  0  0
  4  5  1  0  0  0  0
  4  6  1  0  0  0  0
  4  9  1  6  0  0  0
  5  8  2  0  0  0  0
  5 10  1  0  0  0  0
  6  7  1  0  0  0  0
  7  8  1  0  0  0  0
  8 13  1  0  0  0  0
  9 14  1  0  0  0  0
 10 11  1  0  0  0  0
 10 12  2  0  0  0  0
 11 15  1  0  0  0  0
 12 16  1  0  0  0  0
 13 16  2  0  0  0  0
 17 18  1  0  0  0  0
 18 19  1  0  0  0  0
M  END
