863
 OpenBabel10141417483D

 21 21  0  0  0  0  0  0  0  0999 V2000
    1.1950   -0.6935    0.3543 S   0  0  0  0  0  0  0  0  0  0  0  0
   -1.7941   -1.8844   -0.8013 O   0  0  0  0  0  0  0  0  0  0  0  0
    4.4730    4.1547   -3.6497 O   0  5  0  0  0  0  0  0  0  0  0  0
    4.8763    2.5559   -5.0932 O   0  0  0  0  0  0  0  0  0  0  0  0
   -4.6406   -3.3021   -1.4943 N   0  0  0  0  0  0  0  0  0  0  0  0
    3.3872    1.1234   -0.9677 N   0  0  0  0  0  0  0  0  0  0  0  0
    3.6509    3.4233   -1.1783 N   0  0  0  0  0  0  0  0  0  0  0  0
    4.5288    2.9754   -3.9683 N   0  3  0  0  0  0  0  0  0  0  0  0
   -4.1167   -2.4379   -0.4149 C   0  0  0  0  0  0  0  0  0  0  0  0
   -3.0879   -1.4571   -0.8790 C   0  0  0  0  0  0  0  0  0  0  0  0
   -1.0073   -0.8642   -1.2299 C   0  0  0  0  0  0  0  0  0  0  0  0
    0.4440   -1.1202   -1.2486 C   0  0  0  0  0  0  0  0  0  0  0  0
   -3.1229   -0.1640   -1.3641 C   0  0  0  0  0  0  0  0  0  0  0  0
   -1.7776    0.2221   -1.5822 C   0  0  0  0  0  0  0  0  0  0  0  0
    2.9322   -1.0931   -0.0455 C   0  0  0  0  0  0  0  0  0  0  0  0
    3.4745   -0.2928   -1.2327 C   0  0  0  0  0  0  0  0  0  0  0  0
   -3.5782   -4.1302   -2.0737 C   0  0  0  0  0  0  0  0  0  0  0  0
   -5.6959   -4.1780   -0.9721 C   0  0  0  0  0  0  0  0  0  0  0  0
    3.7451    2.1881   -1.7626 C   0  0  0  0  0  0  0  0  0  0  0  0
    4.1848    1.9459   -3.0267 C   0  0  0  0  0  0  0  0  0  0  0  0
    3.0194    3.7683    0.0783 C   0  0  0  0  0  0  0  0  0  0  0  0
  1 12  1  0  0  0  0
  1 15  1  0  0  0  0
  2 10  1  0  0  0  0
  2 11  1  0  0  0  0
  3  8  1  0  0  0  0
  4  8  2  0  0  0  0
  5  9  1  0  0  0  0
  5 17  1  0  0  0  0
  5 18  1  0  0  0  0
  6 16  1  0  0  0  0
  6 19  1  0  0  0  0
  7 19  1  0  0  0  0
  7 21  1  0  0  0  0
  8 20  1  0  0  0  0
  9 10  1  0  0  0  0
 10 13  2  0  0  0  0
 11 12  1  0  0  0  0
 11 14  2  0  0  0  0
 13 14  1  0  0  0  0
 15 16  1  0  0  0  0
 19 20  2  0  0  0  0
M  CHG  2   3  -1   8   1
M  END
