243
 OpenBabel10141417483D

 31 33  0  0  1  0  0  0  0  0999 V2000
    6.0087    0.0813   -1.0759 O   0  0  0  0  0  0  0  0  0  0  0  0
    4.2339    2.1568   -2.1583 O   0  0  0  0  0  0  0  0  0  0  0  0
    1.5565   -7.0452   -0.5716 O   0  0  0  0  0  0  0  0  0  0  0  0
    4.8505    4.8472   -1.7687 O   0  0  0  0  0  0  0  0  0  0  0  0
    3.8733   -1.7248    0.2015 N   0  0  0  0  0  0  0  0  0  0  0  0
    3.2275   -4.4714    1.3884 N   0  0  0  0  0  0  0  0  0  0  0  0
    3.4585   -7.2276    0.7378 N   0  0  0  0  0  0  0  0  0  0  0  0
    2.7158   -1.9479    1.0888 C   0  0  0  0  0  0  0  0  0  0  0  0
    4.2179   -2.9642   -0.5018 C   0  0  0  0  0  0  0  0  0  0  0  0
    2.8912   -3.1762    2.0317 C   0  0  0  0  0  0  0  0  0  0  0  0
    4.2619   -4.2403    0.3669 C   0  0  0  0  0  0  0  0  0  0  0  0
    3.6504   -0.5754   -0.7225 C   0  0  0  0  0  0  0  0  0  0  0  0
    2.0265   -5.1987    0.9160 C   0  0  0  0  0  0  0  0  0  0  0  0
    4.7932   -0.2602   -1.7381 C   0  0  3  0  0  0  0  0  0  0  0  0
    4.4196    0.8493   -2.7468 C   0  0  0  0  0  0  0  0  0  0  0  0
    2.3133   -6.5897    0.2665 C   0  0  0  0  0  0  0  0  0  0  0  0
    3.9366   -8.4929    0.3027 C   0  0  0  0  0  0  0  0  0  0  0  0
    3.7715    3.1194   -3.0480 C   0  0  0  0  0  0  0  0  0  0  0  0
    5.2217   -8.5955   -0.2874 C   0  0  0  0  0  0  0  0  0  0  0  0
    3.2504   -9.6754    0.6523 C   0  0  0  0  0  0  0  0  0  0  0  0
    5.8448   -9.8530   -0.3988 C   0  0  0  0  0  0  0  0  0  0  0  0
    3.9096  -10.9165    0.5304 C   0  0  0  0  0  0  0  0  0  0  0  0
    4.0792    4.4857   -2.8506 C   0  0  0  0  0  0  0  0  0  0  0  0
    5.9115   -7.4349   -0.9535 C   0  0  0  0  0  0  0  0  0  0  0  0
    1.8800   -9.6942    1.2689 C   0  0  0  0  0  0  0  0  0  0  0  0
    2.9350    2.7804   -4.1252 C   0  0  0  0  0  0  0  0  0  0  0  0
    5.2045  -11.0041    0.0339 C   0  0  0  0  0  0  0  0  0  0  0  0
    3.6157    5.4387   -3.7808 C   0  0  0  0  0  0  0  0  0  0  0  0
    2.4615    3.7380   -5.0199 C   0  0  0  0  0  0  0  0  0  0  0  0
    2.8094    5.0667   -4.8555 C   0  0  0  0  0  0  0  0  0  0  0  0
    4.6918    6.2013   -1.3278 C   0  0  0  0  0  0  0  0  0  0  0  0
  1 14  1  0  0  0  0
  2 15  1  0  0  0  0
  2 18  1  0  0  0  0
  3 16  2  0  0  0  0
  4 23  1  0  0  0  0
  4 31  1  0  0  0  0
  5  8  1  0  0  0  0
  5  9  1  0  0  0  0
  5 12  1  0  0  0  0
  6 10  1  0  0  0  0
  6 11  1  0  0  0  0
  6 13  1  0  0  0  0
  7 16  1  0  0  0  0
  7 17  1  0  0  0  0
  8 10  1  0  0  0  0
  9 11  1  0  0  0  0
 12 14  1  0  0  0  0
 13 16  1  0  0  0  0
 14 15  1  0  0  0  0
 17 19  2  0  0  0  0
 17 20  1  0  0  0  0
 18 23  1  0  0  0  0
 18 26  2  0  0  0  0
 19 21  1  0  0  0  0
 19 24  1  0  0  0  0
 20 22  2  0  0  0  0
 20 25  1  0  0  0  0
 21 27  2  0  0  0  0
 22 27  1  0  0  0  0
 23 28  2  0  0  0  0
 26 29  1  0  0  0  0
 28 30  1  0  0  0  0
 29 30  2  0  0  0  0
M  END
