1367
 OpenBabel10141417513D

 13 14  0  0  1  0  0  0  0  0999 V2000
    1.1160   -0.7128    0.3327 N   0  0  0  0  0  0  0  0  0  0  0  0
    0.6865   -1.5137   -0.8160 C   0  0  2  0  0  0  0  0  0  0  0  0
   -0.8462   -1.7204   -0.7569 C   0  0  0  0  0  0  0  0  0  0  0  0
   -1.0912   -2.9548    0.1248 C   0  0  0  0  0  0  0  0  0  0  0  0
    1.1327   -2.9525   -0.7430 C   0  0  0  0  0  0  0  0  0  0  0  0
    0.1327   -3.7606   -0.1834 C   0  0  0  0  0  0  0  0  0  0  0  0
    2.3475   -3.4977   -1.1315 C   0  0  0  0  0  0  0  0  0  0  0  0
    0.3442   -5.1100    0.0426 C   0  0  0  0  0  0  0  0  0  0  0  0
    2.5373   -0.3944    0.3034 C   0  0  0  0  0  0  0  0  0  0  0  0
    2.5651   -4.8604   -0.9193 C   0  0  0  0  0  0  0  0  0  0  0  0
    1.5732   -5.6589   -0.3296 C   0  0  0  0  0  0  0  0  0  0  0  0
    2.8812    0.4232    1.4729 C   0  0  0  0  0  0  0  0  0  0  0  0
    3.1802    1.0730    2.4398 C   0  0  0  0  0  0  0  0  0  0  0  0
  1  9  1  0  0  0  0
  2  1  1  1  0  0  0
  2  3  1  0  0  0  0
  2  5  1  0  0  0  0
  3  4  1  0  0  0  0
  4  6  1  0  0  0  0
  5  6  1  0  0  0  0
  5  7  2  0  0  0  0
  6  8  2  0  0  0  0
  7 10  1  0  0  0  0
  8 11  1  0  0  0  0
  9 12  1  0  0  0  0
 10 11  2  0  0  0  0
 12 13  3  0  0  0  0
M  END
