
 OpenBabel10141417543D

 28 31  0  0  1  0  0  0  0  0999 V2000
    0.1483   -1.6392    0.8327 O   0  0  0  0  0  0  0  0  0  0  0  0
   -0.0488    1.3783    0.0005 O   0  0  0  0  0  0  0  0  0  0  0  0
   -2.4696    0.4749   -0.4592 O   0  0  0  0  0  0  0  0  0  0  0  0
   -1.9669   -3.3563   -0.2276 O   0  0  0  0  0  0  0  0  0  0  0  0
    5.3310    4.5262   -6.6473 O   0  0  0  0  0  0  0  0  0  0  0  0
    1.4371   -1.8179   -1.1465 N   0  0  0  0  0  0  0  0  0  0  0  0
    1.8591   -3.7119   -2.2468 N   0  0  0  0  0  0  0  0  0  0  0  0
    2.6640   -0.2479   -2.5394 N   0  0  0  0  0  0  0  0  0  0  0  0
    3.6544   -1.3492   -4.4685 N   0  0  0  0  0  0  0  0  0  0  0  0
    3.8648    1.0096   -4.1763 N   0  0  0  0  0  0  0  0  0  0  0  0
    3.5265   -3.6640   -4.8652 N   0  0  0  0  0  0  0  0  0  0  0  0
    3.6823    2.1707   -3.4830 N   0  0  0  0  0  0  0  0  0  0  0  0
    6.3432    2.5572   -7.2509 N   0  0  0  0  0  0  0  0  0  0  0  0
   -0.0721    0.1485   -0.7565 C   0  0  1  0  0  0  0  0  0  0  0  0
    0.8870   -0.8947   -0.1676 C   0  0  1  0  0  0  0  0  0  0  0  0
   -1.4301   -0.4966   -0.5503 C   0  0  1  0  0  0  0  0  0  0  0  0
   -1.2409   -1.2486    0.7622 C   0  0  1  0  0  0  0  0  0  0  0  0
   -2.1604   -2.4690    0.8743 C   0  0  0  0  0  0  0  0  0  0  0  0
    2.2358   -1.4729   -2.2056 C   0  0  0  0  0  0  0  0  0  0  0  0
    1.2565   -3.1745   -1.2047 C   0  0  0  0  0  0  0  0  0  0  0  0
    2.4684   -2.6554   -2.8861 C   0  0  0  0  0  0  0  0  0  0  0  0
    3.2244   -2.5678   -4.0668 C   0  0  0  0  0  0  0  0  0  0  0  0
    3.3745   -0.2581   -3.6987 C   0  0  0  0  0  0  0  0  0  0  0  0
    4.5505    1.2334   -5.3560 C   0  0  0  0  0  0  0  0  0  0  0  0
    4.8195    2.5905   -5.4331 C   0  0  0  0  0  0  0  0  0  0  0  0
    4.2474    3.1057   -4.2508 C   0  0  0  0  0  0  0  0  0  0  0  0
    5.4921    3.3270   -6.4843 C   0  0  0  0  0  0  0  0  0  0  0  0
    7.1213    3.1310   -8.3167 C   0  0  0  0  0  0  0  0  0  0  0  0
  1 15  1  0  0  0  0
  1 17  1  0  0  0  0
  4 18  1  0  0  0  0
  5 27  2  0  0  0  0
  6 19  1  0  0  0  0
  6 20  1  0  0  0  0
  7 20  2  0  0  0  0
  7 21  1  0  0  0  0
  8 19  1  0  0  0  0
  8 23  2  0  0  0  0
  9 22  2  0  0  0  0
  9 23  1  0  0  0  0
 10 12  1  0  0  0  0
 10 23  1  0  0  0  0
 10 24  1  0  0  0  0
 11 22  1  0  0  0  0
 12 26  2  0  0  0  0
 13 27  1  0  0  0  0
 13 28  1  0  0  0  0
 14 15  1  0  0  0  0
 14 16  1  0  0  0  0
 14  2  1  1  0  0  0
 15  6  1  6  0  0  0
 16 17  1  0  0  0  0
 16  3  1  1  0  0  0
 17 18  1  6  0  0  0
 19 21  2  0  0  0  0
 21 22  1  0  0  0  0
 24 25  2  0  0  0  0
 25 26  1  0  0  0  0
 25 27  1  0  0  0  0
M  END
