
 OpenBabel10141417483D

 33 35  0  0  0  0  0  0  0  0999 V2000
    5.1987   -7.4359   -2.2549 C   0  0  0  0  0  0  0  0  0  0  0  0
    5.8647   -6.2122   -2.1262 C   0  0  0  0  0  0  0  0  0  0  0  0
    5.2105   -5.0853   -1.6284 C   0  0  0  0  0  0  0  0  0  0  0  0
    3.8848   -5.1695   -1.2302 C   0  0  0  0  0  0  0  0  0  0  0  0
    3.2086   -6.3928   -1.3807 C   0  0  0  0  0  0  0  0  0  0  0  0
    3.8501   -7.5418   -1.9060 C   0  0  0  0  0  0  0  0  0  0  0  0
    6.1382   -8.7554   -2.8453 Cl  0  0  0  0  0  0  0  0  0  0  0  0
    3.1678   -4.0882   -0.6887 N   0  0  0  0  0  0  0  0  0  0  0  0
    3.5941   -2.8132   -0.4347 C   0  0  0  0  0  0  0  0  0  0  0  0
    2.6790   -1.9414    0.1012 N   0  0  0  0  0  0  0  0  0  0  0  0
    4.7433   -2.4036   -0.5612 O   0  0  0  0  0  0  0  0  0  0  0  0
    1.2719   -1.9577    0.1809 C   0  0  0  0  0  0  0  0  0  0  0  0
    0.4334   -2.8197   -0.5388 C   0  0  0  0  0  0  0  0  0  0  0  0
   -0.9350   -2.8841   -0.3093 C   0  0  0  0  0  0  0  0  0  0  0  0
   -1.5056   -2.0533    0.6432 C   0  0  0  0  0  0  0  0  0  0  0  0
   -0.7017   -1.1181    1.3081 C   0  0  0  0  0  0  0  0  0  0  0  0
    0.6713   -1.0422    1.0489 C   0  0  0  0  0  0  0  0  0  0  0  0
   -2.8430   -2.2582    0.9123 O   0  0  0  0  0  0  0  0  0  0  0  0
   -3.6321   -1.1768    1.2321 C   0  0  0  0  0  0  0  0  0  0  0  0
   -3.4107    0.0879    0.6973 C   0  0  0  0  0  0  0  0  0  0  0  0
   -4.2406    1.1186    1.0876 C   0  0  0  0  0  0  0  0  0  0  0  0
   -5.3086    0.9639    1.9045 N   0  0  0  0  0  0  0  0  0  0  0  0
   -5.5224   -0.2889    2.3932 C   0  0  0  0  0  0  0  0  0  0  0  0
   -4.7124   -1.3824    2.0871 C   0  0  0  0  0  0  0  0  0  0  0  0
   -6.6951   -0.4741    3.3117 C   0  0  0  0  0  0  0  0  0  0  0  0
   -7.7596    0.3782    3.1344 N   0  0  0  0  0  0  0  0  0  0  0  0
   -6.6869   -1.3827    4.1586 O   0  0  0  0  0  0  0  0  0  0  0  0
   -8.9916    0.2740    3.8858 C   0  0  0  0  0  0  0  0  0  0  0  0
    0.9216   -3.6404   -1.4771 F   0  0  0  0  0  0  0  0  0  0  0  0
    3.0275   -8.7953   -2.0664 C   0  0  0  0  0  0  0  0  0  0  0  0
    3.6611   -9.8789   -2.5848 F   0  0  0  0  0  0  0  0  0  0  0  0
    2.5034   -9.2156   -0.8784 F   0  0  0  0  0  0  0  0  0  0  0  0
    1.9495   -8.5884   -2.8792 F   0  0  0  0  0  0  0  0  0  0  0  0
  1  2  2  0  0  0  0
  1  6  1  0  0  0  0
  1  7  1  0  0  0  0
  2  3  1  0  0  0  0
  3  4  2  0  0  0  0
  4  5  1  0  0  0  0
  4  8  1  0  0  0  0
  5  6  2  0  0  0  0
  6 30  1  0  0  0  0
  8  9  1  0  0  0  0
  9 10  1  0  0  0  0
  9 11  2  0  0  0  0
 10 12  1  0  0  0  0
 12 13  2  0  0  0  0
 12 17  1  0  0  0  0
 13 14  1  0  0  0  0
 13 29  1  0  0  0  0
 14 15  2  0  0  0  0
 15 16  1  0  0  0  0
 15 18  1  0  0  0  0
 16 17  2  0  0  0  0
 18 19  1  0  0  0  0
 19 20  2  0  0  0  0
 19 24  1  0  0  0  0
 20 21  1  0  0  0  0
 21 22  2  0  0  0  0
 22 23  1  0  0  0  0
 23 24  2  0  0  0  0
 23 25  1  0  0  0  0
 25 26  1  0  0  0  0
 25 27  2  0  0  0  0
 26 28  1  0  0  0  0
 30 31  1  0  0  0  0
 30 32  1  0  0  0  0
 30 33  1  0  0  0  0
M  END
