212
 OpenBabel10141417493D

 44 47  0  0  1  0  0  0  0  0999 V2000
   -7.9480   -0.6653    1.9495 S   0  0  0  0  0  0  0  0  0  0  0  0
    0.8659   -0.5625    6.3787 O   0  0  0  0  0  0  0  0  0  0  0  0
    1.3365    2.9720    5.4455 O   0  0  0  0  0  0  0  0  0  0  0  0
   -1.3372    0.5814    1.7769 O   0  0  0  0  0  0  0  0  0  0  0  0
   -8.7755   -1.8771    2.1135 O   0  0  0  0  0  0  0  0  0  0  0  0
   -7.7653   -0.0922    0.6460 O   0  0  0  0  0  0  0  0  0  0  0  0
   -4.0692   -2.9499    3.6476 O   0  0  0  0  0  0  0  0  0  0  0  0
   -0.2168   -0.0282    3.6946 N   0  0  0  0  0  0  0  0  0  0  0  0
   -3.1792   -1.5410    2.0960 N   0  0  0  0  0  0  0  0  0  0  0  0
    0.1820   -3.6235   -0.0595 N   0  0  0  0  0  0  0  0  0  0  0  0
    0.0075   -1.9527   -1.4961 N   0  0  0  0  0  0  0  0  0  0  0  0
    3.0071    0.3917    6.0374 C   0  0  0  0  0  0  0  0  0  0  0  0
    3.8763   -0.3232    7.0513 C   0  0  0  0  0  0  0  0  0  0  0  0
    4.1845    1.0964    6.6829 C   0  0  0  0  0  0  0  0  0  0  0  0
    1.5632    0.6847    6.3359 C   0  0  2  0  0  0  0  0  0  0  0  0
    0.8140    1.6389    5.3599 C   0  0  2  0  0  0  0  0  0  0  0  0
    0.5005    1.2469    3.8646 C   0  0  1  0  0  0  0  0  0  0  0  0
    2.8279    0.6200    2.5772 C   0  0  0  0  0  0  0  0  0  0  0  0
    1.5947    1.5355    2.7908 C   0  0  0  0  0  0  0  0  0  0  0  0
    3.7114    1.1354    1.4196 C   0  0  0  0  0  0  0  0  0  0  0  0
    2.5144   -0.8824    2.4153 C   0  0  0  0  0  0  0  0  0  0  0  0
    3.1934    0.7055    0.0567 C   0  0  0  0  0  0  0  0  0  0  0  0
    3.2793   -1.5392    1.2669 C   0  0  0  0  0  0  0  0  0  0  0  0
    2.9498   -0.7990   -0.0240 C   0  0  0  0  0  0  0  0  0  0  0  0
   -1.1081   -0.2564    2.6504 C   0  0  0  0  0  0  0  0  0  0  0  0
   -1.8164   -1.6410    2.6517 C   0  0  2  0  0  0  0  0  0  0  0  0
   -1.0016   -2.8002    2.0210 C   0  0  0  0  0  0  0  0  0  0  0  0
   -5.5639   -2.1640    1.9168 C   0  0  1  0  0  0  0  0  0  0  0  0
   -6.3153   -1.0249    2.6208 C   0  0  0  0  0  0  0  0  0  0  0  0
   -8.6935    0.5901    3.0601 C   0  0  0  0  0  0  0  0  0  0  0  0
   -4.2112   -2.2834    2.6210 C   0  0  0  0  0  0  0  0  0  0  0  0
   -6.2953   -3.5249    2.0123 C   0  0  0  0  0  0  0  0  0  0  0  0
   -0.5510   -2.6515    0.5952 C   0  0  0  0  0  0  0  0  0  0  0  0
  -10.1498    0.8395    2.6179 C   0  0  0  0  0  0  0  0  0  0  0  0
   -8.6979    0.0821    4.5112 C   0  0  0  0  0  0  0  0  0  0  0  0
   -7.9076    1.9054    2.9729 C   0  0  0  0  0  0  0  0  0  0  0  0
   -5.5978   -4.7293    1.4114 C   0  0  0  0  0  0  0  0  0  0  0  0
   -0.6608   -1.6421   -0.3393 C   0  0  0  0  0  0  0  0  0  0  0  0
   -5.8245   -5.9969    1.9724 C   0  0  0  0  0  0  0  0  0  0  0  0
   -4.8130   -4.6404    0.2550 C   0  0  0  0  0  0  0  0  0  0  0  0
    0.5377   -3.1322   -1.2843 C   0  0  0  0  0  0  0  0  0  0  0  0
   -5.2573   -7.1406    1.4077 C   0  0  0  0  0  0  0  0  0  0  0  0
   -4.2384   -5.7837   -0.3036 C   0  0  0  0  0  0  0  0  0  0  0  0
   -4.4595   -7.0326    0.2719 C   0  0  0  0  0  0  0  0  0  0  0  0
  1  5  2  0  0  0  0
  1  6  2  0  0  0  0
  1 29  1  0  0  0  0
  1 30  1  0  0  0  0
  4 25  2  0  0  0  0
  7 31  2  0  0  0  0
  8 25  1  0  0  0  0
  9 31  1  0  0  0  0
 10 33  1  0  0  0  0
 10 41  1  0  0  0  0
 11 38  1  0  0  0  0
 11 41  2  0  0  0  0
 12 13  1  0  0  0  0
 12 14  1  0  0  0  0
 13 14  1  0  0  0  0
 15 12  1  1  0  0  0
 15  2  1  0  0  0  0
 16 17  1  0  0  0  0
 16 15  1  0  0  0  0
 16  3  1  6  0  0  0
 17  8  1  1  0  0  0
 17 19  1  0  0  0  0
 18 19  1  0  0  0  0
 18 20  1  0  0  0  0
 18 21  1  0  0  0  0
 20 22  1  0  0  0  0
 21 23  1  0  0  0  0
 22 24  1  0  0  0  0
 23 24  1  0  0  0  0
 26 27  1  6  0  0  0
 26 25  1  0  0  0  0
 26  9  1  0  0  0  0
 27 33  1  0  0  0  0
 28 29  1  1  0  0  0
 28 31  1  0  0  0  0
 28 32  1  0  0  0  0
 30 34  1  0  0  0  0
 30 35  1  0  0  0  0
 30 36  1  0  0  0  0
 32 37  1  0  0  0  0
 33 38  2  0  0  0  0
 37 39  2  0  0  0  0
 37 40  1  0  0  0  0
 39 42  1  0  0  0  0
 40 43  2  0  0  0  0
 42 44  2  0  0  0  0
 43 44  1  0  0  0  0
M  END
