899
 OpenBabel10141417493D

 27 28  0  0  0  0  0  0  0  0999 V2000
    1.4668    1.8340   -0.1894 O   0  0  0  0  0  0  0  0  0  0  0  0
    1.7981    0.7756    1.8085 O   0  0  0  0  0  0  0  0  0  0  0  0
    0.1513   -0.1690   -1.5889 O   0  0  0  0  0  0  0  0  0  0  0  0
   -5.8933    5.5864    1.9196 O   0  0  0  0  0  0  0  0  0  0  0  0
   -5.8091    3.3138    2.2323 O   0  0  0  0  0  0  0  0  0  0  0  0
   -1.5350    3.6035    2.0142 N   0  0  0  0  0  0  0  0  0  0  0  0
   -0.7691   -0.4659    0.5048 N   0  0  0  0  0  0  0  0  0  0  0  0
   -0.4984    0.9686    0.9520 C   0  0  0  0  0  0  0  0  0  0  0  0
   -1.2681    1.9938    0.0789 C   0  0  0  0  0  0  0  0  0  0  0  0
   -0.9110    1.2276    2.4398 C   0  0  0  0  0  0  0  0  0  0  0  0
   -1.1656    3.4353    0.6037 C   0  0  0  0  0  0  0  0  0  0  0  0
   -0.7431    2.6913    2.8479 C   0  0  0  0  0  0  0  0  0  0  0  0
    1.0437    1.1764    0.9247 C   0  0  0  0  0  0  0  0  0  0  0  0
   -2.9820    3.4724    2.2691 C   0  0  0  0  0  0  0  0  0  0  0  0
   -1.3792   -1.3486    1.4297 C   0  0  0  0  0  0  0  0  0  0  0  0
   -0.4002   -0.9083   -0.7700 C   0  0  0  0  0  0  0  0  0  0  0  0
   -3.8140    4.5549    1.5857 C   0  0  0  0  0  0  0  0  0  0  0  0
   -0.6600   -2.3650   -1.1610 C   0  0  0  0  0  0  0  0  0  0  0  0
   -0.5806   -2.0074    2.3675 C   0  0  0  0  0  0  0  0  0  0  0  0
   -2.7656   -1.5459    1.4224 C   0  0  0  0  0  0  0  0  0  0  0  0
   -5.2643    4.3948    1.9544 C   0  0  0  0  0  0  0  0  0  0  0  0
    0.6372   -3.1097   -1.4370 C   0  0  0  0  0  0  0  0  0  0  0  0
    2.8792    2.0214   -0.2885 C   0  0  0  0  0  0  0  0  0  0  0  0
   -1.1685   -2.8397    3.3186 C   0  0  0  0  0  0  0  0  0  0  0  0
   -3.3502   -2.3731    2.3852 C   0  0  0  0  0  0  0  0  0  0  0  0
   -2.5525   -3.0137    3.3349 C   0  0  0  0  0  0  0  0  0  0  0  0
   -7.1952    5.5765    2.5070 C   0  0  0  0  0  0  0  0  0  0  0  0
  1 13  1  0  0  0  0
  1 23  1  0  0  0  0
  2 13  2  0  0  0  0
  3 16  2  0  0  0  0
  4 21  1  0  0  0  0
  4 27  1  0  0  0  0
  5 21  2  0  0  0  0
  6 11  1  0  0  0  0
  6 12  1  0  0  0  0
  6 14  1  0  0  0  0
  7  8  1  0  0  0  0
  7 15  1  0  0  0  0
  7 16  1  0  0  0  0
  8  9  1  0  0  0  0
  8 10  1  0  0  0  0
  8 13  1  0  0  0  0
  9 11  1  0  0  0  0
 10 12  1  0  0  0  0
 14 17  1  0  0  0  0
 15 19  2  0  0  0  0
 15 20  1  0  0  0  0
 16 18  1  0  0  0  0
 17 21  1  0  0  0  0
 18 22  1  0  0  0  0
 19 24  1  0  0  0  0
 20 25  2  0  0  0  0
 24 26  2  0  0  0  0
 25 26  1  0  0  0  0
M  END
