409
 OpenBabel10141417553D

 22 23  0  0  1  0  0  0  0  0999 V2000
   18.0901    3.1134    1.3297 Br  0  0  0  0  0  0  0  0  0  0  0  0
   12.4282    3.4489    2.3889 O   0  0  0  0  0  0  0  0  0  0  0  0
   15.1530    2.5964    1.7687 O   0  0  0  0  0  0  0  0  0  0  0  0
   13.7076    7.2779    1.8421 O   0  0  0  0  0  0  0  0  0  0  0  0
    9.7133    7.4019    1.2567 N   0  0  0  0  0  0  0  0  0  0  0  0
   11.9039    5.6135    2.3200 N   0  0  0  0  0  0  0  0  0  0  0  0
    9.6619    6.7089    2.5767 C   0  0  1  0  0  0  0  0  0  0  0  0
    8.1772    6.4295    2.8141 C   0  0  0  0  0  0  0  0  0  0  0  0
    7.5915    6.2460    1.4253 C   0  0  0  0  0  0  0  0  0  0  0  0
    8.6462    6.7734    0.4608 C   0  0  0  0  0  0  0  0  0  0  0  0
   10.4818    5.3884    2.5580 C   0  0  0  0  0  0  0  0  0  0  0  0
    9.5599    8.8605    1.3858 C   0  0  0  0  0  0  0  0  0  0  0  0
    9.6235    9.6206    0.0563 C   0  0  0  0  0  0  0  0  0  0  0  0
   12.8202    4.5818    2.2127 C   0  0  0  0  0  0  0  0  0  0  0  0
   14.2878    4.9441    1.8940 C   0  0  0  0  0  0  0  0  0  0  0  0
   15.3176    3.9605    1.7589 C   0  0  0  0  0  0  0  0  0  0  0  0
   14.6739    6.3044    1.7269 C   0  0  0  0  0  0  0  0  0  0  0  0
   16.6518    4.3581    1.4725 C   0  0  0  0  0  0  0  0  0  0  0  0
   16.0088    6.6559    1.4544 C   0  0  0  0  0  0  0  0  0  0  0  0
   16.9933    5.6941    1.3266 C   0  0  0  0  0  0  0  0  0  0  0  0
   14.5255    2.0428    2.9172 C   0  0  0  0  0  0  0  0  0  0  0  0
   14.1032    8.6290    1.6491 C   0  0  0  0  0  0  0  0  0  0  0  0
  1 18  1  0  0  0  0
  2 14  2  0  0  0  0
  3 16  1  0  0  0  0
  3 21  1  0  0  0  0
  4 17  1  0  0  0  0
  4 22  1  0  0  0  0
  5  7  1  0  0  0  0
  5 10  1  0  0  0  0
  5 12  1  0  0  0  0
  6 11  1  0  0  0  0
  6 14  1  0  0  0  0
  7  8  1  0  0  0  0
  7 11  1  6  0  0  0
  8  9  1  0  0  0  0
  9 10  1  0  0  0  0
 12 13  1  0  0  0  0
 14 15  1  0  0  0  0
 15 16  1  0  0  0  0
 15 17  2  0  0  0  0
 16 18  2  0  0  0  0
 17 19  1  0  0  0  0
 18 20  1  0  0  0  0
 19 20  2  0  0  0  0
M  END
