912
 OpenBabel10141417483D

 33 35  0  0  1  0  0  0  0  0999 V2000
    3.7944   -0.3614    4.0061 O   0  0  0  0  0  0  0  0  0  0  0  0
    6.3600   -5.5189    3.1661 O   0  0  0  0  0  0  0  0  0  0  0  0
    5.5348   -7.5735    7.0031 O   0  0  0  0  0  0  0  0  0  0  0  0
    6.5353   -7.9790    5.0643 O   0  0  0  0  0  0  0  0  0  0  0  0
    3.6526   -2.0601   -1.6761 N   0  0  0  0  0  0  0  0  0  0  0  0
    2.9937   -1.4576    2.1333 N   0  0  0  0  0  0  0  0  0  0  0  0
    3.5879   -1.8914   -3.1611 C   0  0  0  0  0  0  0  0  0  0  0  0
    3.9084   -3.4883   -1.3205 C   0  0  0  0  0  0  0  0  0  0  0  0
    2.5229   -2.7887   -3.7942 C   0  0  0  0  0  0  0  0  0  0  0  0
    2.8316   -4.3969   -1.9256 C   0  0  0  0  0  0  0  0  0  0  0  0
    2.7793   -4.2504   -3.4425 C   0  0  0  0  0  0  0  0  0  0  0  0
    3.2615   -0.4996    1.0457 C   0  0  2  0  0  0  0  0  0  0  0  0
    4.6911   -1.2727   -1.0504 C   0  0  0  0  0  0  0  0  0  0  0  0
    4.5936   -0.7845    0.2925 C   0  0  0  0  0  0  0  0  0  0  0  0
    3.1411    1.0202    1.4461 C   0  0  0  0  0  0  0  0  0  0  0  0
    1.8856    1.5309    2.2054 C   0  0  0  0  0  0  0  0  0  0  0  0
    5.9255   -1.0922   -1.7328 C   0  0  0  0  0  0  0  0  0  0  0  0
    5.7953   -0.3752    0.9250 C   0  0  0  0  0  0  0  0  0  0  0  0
    2.0242    3.0402    2.4880 C   0  0  0  0  0  0  0  0  0  0  0  0
    0.5816    1.2984    1.4490 C   0  0  0  0  0  0  0  0  0  0  0  0
    7.0504   -0.5508   -1.1219 C   0  0  0  0  0  0  0  0  0  0  0  0
    7.0013   -0.2501    0.2255 C   0  0  0  0  0  0  0  0  0  0  0  0
    3.2518   -1.3319    3.4863 C   0  0  0  0  0  0  0  0  0  0  0  0
    2.7247   -2.5000    4.3239 C   0  0  0  0  0  0  0  0  0  0  0  0
    3.7124   -3.5735    4.7348 C   0  0  0  0  0  0  0  0  0  0  0  0
    4.7427   -4.0245    3.8931 C   0  0  0  0  0  0  0  0  0  0  0  0
    3.4813   -4.2797    5.9185 C   0  0  0  0  0  0  0  0  0  0  0  0
    5.5191   -5.1708    4.1916 C   0  0  0  0  0  0  0  0  0  0  0  0
    4.2424   -5.4066    6.2320 C   0  0  0  0  0  0  0  0  0  0  0  0
    5.2468   -5.8978    5.3697 C   0  0  0  0  0  0  0  0  0  0  0  0
    5.8405   -7.2133    5.7454 C   0  0  0  0  0  0  0  0  0  0  0  0
    7.7132   -5.8577    3.4735 C   0  0  0  0  0  0  0  0  0  0  0  0
    8.2279   -6.7769    2.3728 C   0  0  0  0  0  0  0  0  0  0  0  0
  1 23  2  0  0  0  0
  2 28  1  0  0  0  0
  2 32  1  0  0  0  0
  3 31  1  0  0  0  0
  4 31  2  0  0  0  0
  5  7  1  0  0  0  0
  5  8  1  0  0  0  0
  5 13  1  0  0  0  0
  6 23  1  0  0  0  0
  7  9  1  0  0  0  0
  8 10  1  0  0  0  0
  9 11  1  0  0  0  0
 10 11  1  0  0  0  0
 12 15  1  1  0  0  0
 12 14  1  0  0  0  0
 12  6  1  0  0  0  0
 13 14  1  0  0  0  0
 13 17  2  0  0  0  0
 14 18  2  0  0  0  0
 15 16  1  0  0  0  0
 16 19  1  0  0  0  0
 16 20  1  0  0  0  0
 17 21  1  0  0  0  0
 18 22  1  0  0  0  0
 21 22  2  0  0  0  0
 23 24  1  0  0  0  0
 24 25  1  0  0  0  0
 25 26  2  0  0  0  0
 25 27  1  0  0  0  0
 26 28  1  0  0  0  0
 27 29  2  0  0  0  0
 28 30  2  0  0  0  0
 29 30  1  0  0  0  0
 30 31  1  0  0  0  0
 32 33  1  0  0  0  0
M  END
