206
 OpenBabel10141418013D

 44 49  0  0  1  0  0  0  0  0999 V2000
   -0.4007   -4.5948   -3.0878 O   0  0  0  0  0  0  0  0  0  0  0  0
    2.3802   -2.0328   -3.1264 O   0  0  0  0  0  0  0  0  0  0  0  0
   -0.8611   -0.5561   -4.1563 O   0  0  0  0  0  0  0  0  0  0  0  0
   -2.6184   -1.8156   -4.8785 O   0  0  0  0  0  0  0  0  0  0  0  0
    0.9734   -0.3733   -2.3680 O   0  0  0  0  0  0  0  0  0  0  0  0
    4.5752    3.2949  -11.6514 O   0  0  0  0  0  0  0  0  0  0  0  0
    4.1077   -0.4967   -7.5470 O   0  0  0  0  0  0  0  0  0  0  0  0
    2.0817    3.3596   -5.3365 O   0  0  0  0  0  0  0  0  0  0  0  0
    2.8514    1.7795   -7.8985 O   0  0  0  0  0  0  0  0  0  0  0  0
    2.0843   -3.8322   -8.0911 N   0  0  3  0  0  0  0  0  0  0  0  0
    1.7623   -0.2161   -9.4283 N   0  0  0  0  0  0  0  0  0  0  0  0
    0.7631   -2.5356   -5.7113 C   0  0  2  0  0  0  0  0  0  0  0  0
    1.9396   -3.5749   -5.5619 C   0  0  1  0  0  0  0  0  0  0  0  0
    0.3961   -2.2152   -7.2049 C   0  0  0  0  0  0  0  0  0  0  0  0
   -0.4070   -2.8280   -4.7838 C   0  0  1  0  0  0  0  0  0  0  0  0
    1.6592   -2.4020   -8.0305 C   0  0  2  0  0  0  0  0  0  0  0  0
    2.0561   -4.5179   -6.7626 C   0  0  0  0  0  0  0  0  0  0  0  0
    2.2411   -4.1229   -4.1507 C   0  0  0  0  0  0  0  0  0  0  0  0
    0.0372   -3.2322   -3.3427 C   0  0  2  0  0  0  0  0  0  0  0  0
    1.5759   -3.2578   -3.0729 C   0  0  2  0  0  0  0  0  0  0  0  0
    1.9714   -1.5784   -9.2667 C   0  0  0  0  0  0  0  0  0  0  0  0
    3.3494   -4.0924   -8.8347 C   0  0  0  0  0  0  0  0  0  0  0  0
    2.9675   -1.9269  -10.1688 C   0  0  0  0  0  0  0  0  0  0  0  0
    3.5019   -3.3256  -10.1879 C   0  0  0  0  0  0  0  0  0  0  0  0
   -1.4222   -1.6848   -4.6588 C   0  0  0  0  0  0  0  0  0  0  0  0
    3.4762   -0.7242  -10.7820 C   0  0  0  0  0  0  0  0  0  0  0  0
    2.6656    0.3195  -10.3561 C   0  0  0  0  0  0  0  0  0  0  0  0
   -1.8125   -4.7704   -3.0550 C   0  0  0  0  0  0  0  0  0  0  0  0
    4.5691   -0.3773  -11.6165 C   0  0  0  0  0  0  0  0  0  0  0  0
    1.9305   -0.8162   -3.1506 C   0  0  0  0  0  0  0  0  0  0  0  0
    2.9089    1.6698  -10.7555 C   0  0  0  0  0  0  0  0  0  0  0  0
    4.8866    0.9795  -11.8879 C   0  0  0  0  0  0  0  0  0  0  0  0
    4.1055    2.0191  -11.4032 C   0  0  0  0  0  0  0  0  0  0  0  0
   -1.7092    0.2669   -3.3395 C   0  0  0  0  0  0  0  0  0  0  0  0
    2.5091    0.0013   -4.2360 C   0  0  0  0  0  0  0  0  0  0  0  0
    2.2153    1.3339   -4.3460 C   0  0  0  0  0  0  0  0  0  0  0  0
    3.2170   -0.5769   -5.2879 C   0  0  0  0  0  0  0  0  0  0  0  0
    3.4804    0.0786   -6.4781 C   0  0  0  0  0  0  0  0  0  0  0  0
    2.4793    2.0521   -5.5027 C   0  0  0  0  0  0  0  0  0  0  0  0
    4.4295    4.3440  -10.6825 C   0  0  0  0  0  0  0  0  0  0  0  0
    3.0245    1.3867   -6.6176 C   0  0  0  0  0  0  0  0  0  0  0  0
    4.6864   -1.7830   -7.4164 C   0  0  0  0  0  0  0  0  0  0  0  0
    2.4797    4.1846   -6.3859 C   0  0  0  0  0  0  0  0  0  0  0  0
    3.5416    2.8884   -8.3950 C   0  0  0  0  0  0  0  0  0  0  0  0
  1 28  1  0  0  0  0
  2 30  1  0  0  0  0
  3 25  1  0  0  0  0
  3 34  1  0  0  0  0
  4 25  2  0  0  0  0
  5 30  2  0  0  0  0
  6 33  1  0  0  0  0
  6 40  1  0  0  0  0
  7 38  1  0  0  0  0
  7 42  1  0  0  0  0
  8 39  1  0  0  0  0
  8 43  1  0  0  0  0
  9 41  1  0  0  0  0
  9 44  1  0  0  0  0
 10 16  1  0  0  0  0
 10 17  1  0  0  0  0
 10 22  1  0  0  0  0
 11 21  1  0  0  0  0
 11 27  1  0  0  0  0
 12 13  1  0  0  0  0
 12 14  1  1  0  0  0
 12 15  1  0  0  0  0
 13 17  1  1  0  0  0
 13 18  1  0  0  0  0
 15 19  1  0  0  0  0
 15 25  1  1  0  0  0
 16 14  1  6  0  0  0
 16 21  1  0  0  0  0
 18 20  1  0  0  0  0
 19 20  1  0  0  0  0
 19  1  1  6  0  0  0
 20  2  1  6  0  0  0
 21 23  2  0  0  0  0
 22 24  1  0  0  0  0
 23 24  1  0  0  0  0
 23 26  1  0  0  0  0
 26 27  2  0  0  0  0
 26 29  1  0  0  0  0
 27 31  1  0  0  0  0
 29 32  2  0  0  0  0
 30 35  1  0  0  0  0
 31 33  2  0  0  0  0
 32 33  1  0  0  0  0
 35 36  2  0  0  0  0
 35 37  1  0  0  0  0
 36 39  1  0  0  0  0
 37 38  2  0  0  0  0
 38 41  1  0  0  0  0
 39 41  2  0  0  0  0
M  END
