6918462
 OpenBabel10141417533D

 36 40  0  0  1  0  0  0  0  0999 V2000
    0.5163    2.8460   -1.5545 S   0  0  0  0  0  0  0  0  0  0  0  0
   -0.8862    5.1148    0.2097 O   0  0  0  0  0  0  0  0  0  0  0  0
   -4.5091    3.3410   -0.7369 O   0  0  0  0  0  0  0  0  0  0  0  0
   -0.6321    6.6779   -2.4544 O   0  0  0  0  0  0  0  0  0  0  0  0
    0.7227    4.5748    1.7257 O   0  0  0  0  0  0  0  0  0  0  0  0
   -0.0391    3.1203   -4.7251 N   0  0  0  0  0  0  0  0  0  0  0  0
   -3.9659    7.1331   -1.1440 C   0  0  1  0  0  0  0  0  0  0  0  0
   -2.4365    7.3802   -0.9701 C   0  0  2  0  0  0  0  0  0  0  0  0
   -1.7943    7.3924    0.4342 C   0  0  1  0  0  0  0  0  0  0  0  0
   -4.6965    5.7798   -0.6961 C   0  0  2  0  0  0  0  0  0  0  0  0
   -2.6341    8.4585    1.2604 C   0  0  1  0  0  0  0  0  0  0  0  0
   -4.6427    8.2997   -0.3706 C   0  0  0  0  0  0  0  0  0  0  0  0
   -4.0588    7.3611   -2.6913 C   0  0  0  0  0  0  0  0  0  0  0  0
   -1.5490    6.0076    1.1358 C   0  0  1  0  0  0  0  0  0  0  0  0
   -4.1746    8.3566    1.0971 C   0  0  0  0  0  0  0  0  0  0  0  0
   -1.8144    6.7975   -2.2347 C   0  0  0  0  0  0  0  0  0  0  0  0
   -3.8595    4.5342   -0.2526 C   0  0  1  0  0  0  0  0  0  0  0  0
   -2.8832    6.5797   -3.2840 C   0  0  0  0  0  0  0  0  0  0  0  0
   -3.6742    4.3337    1.3055 C   0  0  2  0  0  0  0  0  0  0  0  0
   -2.7019    5.3615    1.9256 C   0  0  0  0  0  0  0  0  0  0  0  0
   -0.3528    8.0044    0.2737 C   0  0  0  0  0  0  0  0  0  0  0  0
   -5.8165    5.3578   -1.6893 C   0  0  0  0  0  0  0  0  0  0  0  0
   -2.2339    8.6194    2.7335 C   0  0  0  0  0  0  0  0  0  0  0  0
   -3.1144    2.9125    1.5976 C   0  0  0  0  0  0  0  0  0  0  0  0
   -5.0276    4.4016    2.0719 C   0  0  0  0  0  0  0  0  0  0  0  0
    0.3191    4.6018    0.5780 C   0  0  0  0  0  0  0  0  0  0  0  0
   -5.2192    4.3078    3.3995 C   0  0  0  0  0  0  0  0  0  0  0  0
    1.1280    3.9531   -5.0298 C   0  0  1  0  0  0  0  0  0  0  0  0
    0.4825    1.7563   -4.9011 C   0  0  2  0  0  0  0  0  0  0  0  0
    1.8218    2.6758   -2.8812 C   0  0  3  0  0  0  0  0  0  0  0  0
    1.1797    4.2394   -0.6051 C   0  0  0  0  0  0  0  0  0  0  0  0
    2.0099    3.9366   -3.7617 C   0  0  0  0  0  0  0  0  0  0  0  0
    1.4647    1.4417   -3.7399 C   0  0  0  0  0  0  0  0  0  0  0  0
    1.8141    3.2571   -6.2176 C   0  0  0  0  0  0  0  0  0  0  0  0
    1.2391    1.8447   -6.2271 C   0  0  0  0  0  0  0  0  0  0  0  0
   -1.2193    3.4303   -5.5112 C   0  0  0  0  0  0  0  0  0  0  0  0
  1 31  1  0  0  0  0
  1 30  1  0  0  0  0
  2 26  1  0  0  0  0
  4 16  2  0  0  0  0
  5 26  2  0  0  0  0
  6 36  1  0  0  0  0
  7  8  1  0  0  0  0
  7 10  1  0  0  0  0
  7 12  1  1  0  0  0
  7 13  1  0  0  0  0
  8  9  1  0  0  0  0
  8 16  1  1  0  0  0
  9 11  1  0  0  0  0
  9 14  1  0  0  0  0
  9 21  1  6  0  0  0
 10 17  1  0  0  0  0
 10 22  1  6  0  0  0
 11 15  1  0  0  0  0
 11 23  1  1  0  0  0
 12 15  1  0  0  0  0
 13 18  1  0  0  0  0
 14 20  1  0  0  0  0
 14  2  1  6  0  0  0
 16 18  1  0  0  0  0
 17  3  1  1  0  0  0
 17 19  1  0  0  0  0
 19 20  1  0  0  0  0
 19 24  1  1  0  0  0
 19 25  1  0  0  0  0
 25 27  2  0  0  0  0
 26 31  1  0  0  0  0
 28  6  1  1  0  0  0
 28 32  1  0  0  0  0
 28 34  1  0  0  0  0
 29  6  1  1  0  0  0
 29 33  1  0  0  0  0
 29 35  1  0  0  0  0
 30 32  1  0  0  0  0
 30 33  1  0  0  0  0
 34 35  1  0  0  0  0
M  END
