
 OpenBabel10141417513D

 57 62  0  0  1  0  0  0  0  0999 V2000
    4.9141   11.6766  -12.5980 C   0  0  1  0  0  0  0  0  0  0  0  0
    5.8157   10.4729  -13.0181 C   0  0  2  0  0  0  0  0  0  0  0  0
    5.2043   14.2063  -14.0978 O   0  0  0  0  0  0  0  0  0  0  0  0
    5.9828   14.1118  -12.8983 C   0  0  2  0  0  0  0  0  0  0  0  0
    5.3933   13.0150  -11.9671 C   0  0  1  0  0  0  0  0  0  0  0  0
    4.7430   16.1864  -11.8825 C   0  0  0  0  0  0  0  0  0  0  0  0
    6.0749   15.5144  -12.2024 C   0  0  2  0  0  0  0  0  0  0  0  0
    1.6278   15.4130   -8.8602 C   0  0  0  0  0  0  0  0  0  0  0  0
    1.8227   16.6495   -9.6574 C   0  0  0  0  0  0  0  0  0  0  0  0
    2.8404   16.8537  -10.5123 C   0  0  0  0  0  0  0  0  0  0  0  0
    4.0128   16.0379  -10.7602 C   0  0  0  0  0  0  0  0  0  0  0  0
    6.8998   16.4932  -13.0580 C   0  0  0  0  0  0  0  0  0  0  0  0
    6.2467   12.8054  -10.7155 C   0  0  0  0  0  0  0  0  0  0  0  0
    4.0520   11.9574  -13.7138 O   0  0  0  0  0  0  0  0  0  0  0  0
    0.6403   17.5731   -9.5745 C   0  0  0  0  0  0  0  0  0  0  0  0
    0.7944   14.5904   -9.2313 O   0  0  0  0  0  0  0  0  0  0  0  0
    2.3739   15.3301   -7.7045 N   0  0  0  0  0  0  0  0  0  0  0  0
    5.1842    9.0614  -12.6017 C   0  0  2  0  0  0  0  0  0  0  0  0
    3.8900    8.9777  -13.2994 O   0  0  0  0  0  0  0  0  0  0  0  0
    5.1395    8.6615  -11.0857 C   0  0  1  0  0  0  0  0  0  0  0  0
    2.3293   14.2176   -6.8212 C   0  0  0  0  0  0  0  0  0  0  0  0
    3.5067   13.6845   -6.2514 C   0  0  0  0  0  0  0  0  0  0  0  0
    1.1242   13.5090   -6.5456 C   0  0  0  0  0  0  0  0  0  0  0  0
    1.0880   12.2118   -5.9903 C   0  0  0  0  0  0  0  0  0  0  0  0
    2.3078   11.6654   -5.5330 C   0  0  0  0  0  0  0  0  0  0  0  0
    3.4843   12.4640   -5.5550 C   0  0  0  0  0  0  0  0  0  0  0  0
   -0.0400   11.3443   -6.1067 C   0  0  0  0  0  0  0  0  0  0  0  0
    0.1184    9.9573   -6.1569 C   0  0  0  0  0  0  0  0  0  0  0  0
    1.4113    9.5025   -5.9760 C   0  0  0  0  0  0  0  0  0  0  0  0
    2.3983   10.2733   -5.3911 C   0  0  0  0  0  0  0  0  0  0  0  0
   -0.0890   14.0282   -6.9588 O   0  0  0  0  0  0  0  0  0  0  0  0
   -1.2901   11.8326   -6.3958 O   0  0  0  0  0  0  0  0  0  0  0  0
    7.3131   10.6020  -12.7613 C   0  0  0  0  0  0  0  0  0  0  0  0
    2.7399    9.4670  -12.7586 C   0  0  0  0  0  0  0  0  0  0  0  0
    1.8221   10.0113  -13.8127 C   0  0  0  0  0  0  0  0  0  0  0  0
    2.4793    9.5186  -11.5632 O   0  0  0  0  0  0  0  0  0  0  0  0
    4.4198    7.2791  -10.8129 C   0  0  1  0  0  0  0  0  0  0  0  0
    5.3552    6.2095  -10.9801 O   0  0  0  0  0  0  0  0  0  0  0  0
    3.8094    7.3078   -9.4177 C   0  0  0  0  0  0  0  0  0  0  0  0
    6.5313    8.6706  -10.4301 C   0  0  0  0  0  0  0  0  0  0  0  0
    4.7501    4.9212  -10.9081 C   0  0  0  0  0  0  0  0  0  0  0  0
    4.4286    7.0350   -8.2562 C   0  0  0  0  0  0  0  0  0  0  0  0
    4.0892    7.4666   -6.9926 O   0  0  0  0  0  0  0  0  0  0  0  0
    1.9076    8.4276   -6.7083 O   0  0  0  0  0  0  0  0  0  0  0  0
    3.3513    8.6831   -6.8504 C   0  0  1  0  0  0  0  0  0  0  0  0
    3.5876    9.4213   -5.5280 C   0  0  0  0  0  0  0  0  0  0  0  0
    3.6872    9.7556   -7.9391 C   0  0  0  0  0  0  0  0  0  0  0  0
   -0.9708    9.0454   -6.6289 C   0  0  0  0  0  0  0  0  0  0  0  0
    4.7336   12.1058   -5.1365 N   0  0  0  0  0  0  0  0  0  0  0  0
    5.5505   12.9891   -5.6418 C   0  0  0  0  0  0  0  0  0  0  0  0
    4.8717   13.9698   -6.3602 N   0  0  0  0  0  0  0  0  0  0  0  0
    4.4590    9.2870   -4.7256 O   0  0  0  0  0  0  0  0  0  0  0  0
    6.9718   12.9984   -5.6484 C   0  0  0  0  0  0  0  0  0  0  0  0
    7.6418   13.9103   -6.3809 C   0  0  0  0  0  0  0  0  0  0  0  0
    6.9101   14.9298   -7.1241 C   0  0  0  0  0  0  0  0  0  0  0  0
    5.5657   14.9407   -7.0926 C   0  0  0  0  0  0  0  0  0  0  0  0
    9.1363   13.9113   -6.4902 C   0  0  0  0  0  0  0  0  0  0  0  0
  1  2  1  0  0  0  0
  1  5  1  0  0  0  0
  1 14  1  6  0  0  0
  2 18  1  0  0  0  0
  2 33  1  1  0  0  0
  4  5  1  0  0  0  0
  4  7  1  0  0  0  0
  4  3  1  6  0  0  0
  5 13  1  6  0  0  0
  6  7  1  0  0  0  0
  6 11  2  0  0  0  0
  7 12  1  6  0  0  0
  8  9  1  0  0  0  0
  8 17  1  0  0  0  0
  8 16  2  0  0  0  0
  9 10  2  0  0  0  0
  9 15  1  0  0  0  0
 10 11  1  0  0  0  0
 17 21  1  0  0  0  0
 18 20  1  0  0  0  0
 18 19  1  1  0  0  0
 19 34  1  0  0  0  0
 20 37  1  0  0  0  0
 20 40  1  6  0  0  0
 21 22  1  0  0  0  0
 21 23  2  0  0  0  0
 22 51  1  0  0  0  0
 23 24  1  0  0  0  0
 23 31  1  0  0  0  0
 24 25  1  0  0  0  0
 24 27  2  0  0  0  0
 25 26  1  0  0  0  0
 25 30  2  0  0  0  0
 26 22  2  0  0  0  0
 26 49  1  0  0  0  0
 27 28  1  0  0  0  0
 27 32  1  0  0  0  0
 28 29  2  0  0  0  0
 28 48  1  0  0  0  0
 29 30  1  0  0  0  0
 29 44  1  0  0  0  0
 30 46  1  0  0  0  0
 34 35  1  0  0  0  0
 34 36  2  0  0  0  0
 37 39  1  0  0  0  0
 37 38  1  1  0  0  0
 38 41  1  0  0  0  0
 39 42  2  0  0  0  0
 42 43  1  0  0  0  0
 43 45  1  0  0  0  0
 44 45  1  0  0  0  0
 45 46  1  0  0  0  0
 45 47  1  6  0  0  0
 49 50  2  0  0  0  0
 50 51  1  0  0  0  0
 50 53  1  0  0  0  0
 51 56  1  0  0  0  0
 52 46  2  0  0  0  0
 53 54  2  0  0  0  0
 54 55  1  0  0  0  0
 54 57  1  0  0  0  0
 55 56  2  0  0  0  0
M  END
