
 OpenBabel10141417493D

 59 63  0  0  0  0  0  0  0  0999 V2000
  -24.8802    9.5552    9.5621 C   0  0  0  0  0  0  0  0  0  0  0  0
  -23.6835    9.2047    8.8944 C   0  0  0  0  0  0  0  0  0  0  0  0
  -25.0843    8.4562    7.0008 C   0  0  0  0  0  0  0  0  0  0  0  0
  -23.8689    8.6558    7.6252 C   0  0  0  0  0  0  0  0  0  0  0  0
  -22.3799    9.5315   10.9495 C   0  0  0  0  0  0  0  0  0  0  0  0
  -21.0378    9.6253   11.5839 C   0  0  0  0  0  0  0  0  0  0  0  0
  -20.8638   10.2042   12.7332 N   0  0  0  0  0  0  0  0  0  0  0  0
  -19.3051   11.5159   13.9601 C   0  0  0  0  0  0  0  0  0  0  0  0
  -18.9109    9.1405   13.7187 C   0  0  0  0  0  0  0  0  0  0  0  0
  -17.4437    9.3665   14.1555 C   0  0  0  0  0  0  0  0  0  0  0  0
  -17.8401   11.7078   14.4035 C   0  0  0  0  0  0  0  0  0  0  0  0
  -19.5476   10.3310   13.1013 N   0  0  0  0  0  0  0  0  0  0  0  0
  -17.3040   10.5109   15.0712 N   0  0  0  0  0  0  0  0  0  0  0  0
  -15.9136   10.7034   15.4726 C   0  0  0  0  0  0  0  0  0  0  0  0
  -23.5762    9.6259   11.6697 C   0  0  0  0  0  0  0  0  0  0  0  0
  -23.5635    9.4399   13.0900 N   0  0  0  0  0  0  0  0  0  0  0  0
  -25.3186    6.2656   12.8949 C   0  0  0  0  0  0  0  0  0  0  0  0
  -24.3153    5.2588   12.6094 C   0  0  0  0  0  0  0  0  0  0  0  0
  -24.6651    4.0182   12.2170 C   0  0  0  0  0  0  0  0  0  0  0  0
  -21.2012    5.2830    6.0153 C   0  0  0  0  0  0  0  0  0  0  0  0
  -22.0460    5.5501    4.9997 C   0  0  0  0  0  0  0  0  0  0  0  0
  -23.2400    6.2333    4.9810 O   0  0  0  0  0  0  0  0  0  0  0  0
  -23.8521    8.1838   13.6071 C   0  0  0  0  0  0  0  0  0  0  0  0
  -23.0587    7.6307   14.3684 O   0  0  0  0  0  0  0  0  0  0  0  0
  -24.7764    9.8022   10.9580 C   0  0  0  0  0  0  0  0  0  0  0  0
  -25.8784   10.2188   11.6666 O   0  0  0  0  0  0  0  0  0  0  0  0
  -26.1223    9.5287    8.8226 C   0  0  0  0  0  0  0  0  0  0  0  0
  -27.2423    9.9942    9.4842 O   0  0  0  0  0  0  0  0  0  0  0  0
  -26.2448    8.9827    7.5292 C   0  0  0  0  0  0  0  0  0  0  0  0
  -27.5521    8.8333    6.8151 C   0  0  0  0  0  0  0  0  0  0  0  0
  -25.0142    7.5864    5.9222 O   0  0  0  0  0  0  0  0  0  0  0  0
  -22.9524    7.8811    6.8273 C   0  0  0  0  0  0  0  0  0  0  0  0
  -21.7941    8.1939    6.7031 O   0  0  0  0  0  0  0  0  0  0  0  0
  -23.7819    6.7801    6.1732 C   0  0  1  0  0  0  0  0  0  0  0  0
  -24.2054    5.6644    7.1554 C   0  0  0  0  0  0  0  0  0  0  0  0
  -19.5938    3.2580    6.5691 C   0  0  2  0  0  0  0  0  0  0  0  0
  -19.1525    3.3879    8.0369 C   0  0  0  0  0  0  0  0  0  0  0  0
  -19.8480    4.6273    5.8436 C   0  0  1  0  0  0  0  0  0  0  0  0
  -18.8063    5.5182    6.2927 O   0  0  0  0  0  0  0  0  0  0  0  0
  -18.8618    6.8394    5.7698 C   0  0  0  0  0  0  0  0  0  0  0  0
  -20.6428    2.1411    6.2223 C   0  0  1  0  0  0  0  0  0  0  0  0
  -19.8134    1.1422    5.5390 O   0  0  0  0  0  0  0  0  0  0  0  0
  -18.6735    1.0186    3.5069 C   0  0  0  0  0  0  0  0  0  0  0  0
  -20.0037    0.9930    4.1997 C   0  0  0  0  0  0  0  0  0  0  0  0
  -21.0833    0.9849    3.6324 O   0  0  0  0  0  0  0  0  0  0  0  0
  -21.4186    1.3816    7.3557 C   0  0  2  0  0  0  0  0  0  0  0  0
  -22.1833    0.1965    6.7155 C   0  0  0  0  0  0  0  0  0  0  0  0
  -22.4386    2.2210    8.1726 C   0  0  2  0  0  0  0  0  0  0  0  0
  -22.0669    3.5919    8.1252 O   0  0  0  0  0  0  0  0  0  0  0  0
  -22.6072    1.8372    9.6804 C   0  0  2  0  0  0  0  0  0  0  0  0
  -22.8697    0.3526    9.9351 C   0  0  0  0  0  0  0  0  0  0  0  0
  -23.7183    2.7359   10.3078 C   0  0  1  0  0  0  0  0  0  0  0  0
  -25.0000    2.3027    9.8223 O   0  0  0  0  0  0  0  0  0  0  0  0
  -23.7556    2.8466   11.8592 C   0  0  1  0  0  0  0  0  0  0  0  0
  -22.3727    2.9386   12.5069 C   0  0  0  0  0  0  0  0  0  0  0  0
  -25.1701    7.5414   13.3082 C   0  0  0  0  0  0  0  0  0  0  0  0
  -26.3953    8.3117   13.7092 C   0  0  0  0  0  0  0  0  0  0  0  0
  -22.4369    9.3228    9.5682 C   0  0  0  0  0  0  0  0  0  0  0  0
  -21.2320    9.2177    8.9189 O   0  0  0  0  0  0  0  0  0  0  0  0
  2  1  1  0  0  0  0
  2 58  2  0  0  0  0
  3 31  1  0  0  0  0
  3  4  2  0  0  0  0
  4  2  1  0  0  0  0
  4 32  1  0  0  0  0
  5 15  2  0  0  0  0
  5  6  1  0  0  0  0
  6  7  2  0  0  0  0
  7 12  1  0  0  0  0
  8 12  1  0  0  0  0
  8 11  1  0  0  0  0
  9 10  1  0  0  0  0
 10 13  1  0  0  0  0
 12  9  1  0  0  0  0
 13 11  1  0  0  0  0
 13 14  1  0  0  0  0
 15 16  1  0  0  0  0
 16 23  1  0  0  0  0
 17 18  1  0  0  0  0
 18 19  2  0  0  0  0
 19 54  1  0  0  0  0
 20 21  2  0  0  0  0
 21 22  1  0  0  0  0
 23 56  1  0  0  0  0
 23 24  2  0  0  0  0
 25  1  2  0  0  0  0
 25 15  1  0  0  0  0
 25 26  1  0  0  0  0
 27 29  2  0  0  0  0
 27  1  1  0  0  0  0
 27 28  1  0  0  0  0
 29  3  1  0  0  0  0
 29 30  1  0  0  0  0
 32 34  1  0  0  0  0
 32 33  2  0  0  0  0
 34 31  1  0  0  0  0
 34 22  1  0  0  0  0
 34 35  1  6  0  0  0
 36 38  1  0  0  0  0
 36 37  1  1  0  0  0
 38 20  1  0  0  0  0
 38 39  1  6  0  0  0
 39 40  1  0  0  0  0
 41 36  1  0  0  0  0
 41 42  1  1  0  0  0
 42 44  1  0  0  0  0
 44 43  1  0  0  0  0
 44 45  2  0  0  0  0
 46 41  1  0  0  0  0
 46 47  1  6  0  0  0
 48 46  1  0  0  0  0
 48 49  1  1  0  0  0
 50 48  1  0  0  0  0
 50 51  1  6  0  0  0
 52 50  1  0  0  0  0
 52 53  1  1  0  0  0
 54 52  1  0  0  0  0
 54 55  1  6  0  0  0
 56 17  2  0  0  0  0
 56 57  1  0  0  0  0
 58  5  1  0  0  0  0
 58 59  1  0  0  0  0
M  END
