
 OpenBabel10141417513D

 63 68  0  0  1  0  0  0  0  0999 V2000
  -15.3920  -12.8277   13.7262 C   0  0  0  0  0  0  0  0  0  0  0  0
  -15.8169  -13.1624   12.4173 C   0  0  0  0  0  0  0  0  0  0  0  0
  -15.6408  -14.4962   12.0417 C   0  0  0  0  0  0  0  0  0  0  0  0
  -15.3570  -15.0189   10.7218 C   0  0  0  0  0  0  0  0  0  0  0  0
  -15.2846  -15.4940   12.9251 C   0  0  0  0  0  0  0  0  0  0  0  0
   -9.2185  -13.6846   11.5255 C   0  0  1  0  0  0  0  0  0  0  0  0
  -15.1666  -15.2508   14.2832 C   0  0  0  0  0  0  0  0  0  0  0  0
  -15.1654  -13.8942   14.6543 C   0  0  0  0  0  0  0  0  0  0  0  0
   -8.4096  -12.8418   12.6032 C   0  0  2  0  0  0  0  0  0  0  0  0
   -8.0733  -11.3183   12.3366 C   0  0  1  0  0  0  0  0  0  0  0  0
   -7.2472   -9.1599   13.8378 C   0  0  1  0  0  0  0  0  0  0  0  0
   -7.9852  -10.5490   13.7220 C   0  0  1  0  0  0  0  0  0  0  0  0
   -7.6717   -8.3410   15.1317 C   0  0  1  0  0  0  0  0  0  0  0  0
   -6.5263   -7.8813   15.8749 O   0  0  0  0  0  0  0  0  0  0  0  0
   -8.5475   -7.0631   14.9019 C   0  0  2  0  0  0  0  0  0  0  0  0
   -9.9961   -7.4344   14.6810 C   0  0  0  0  0  0  0  0  0  0  0  0
  -12.5966   -7.9513   12.2080 C   0  0  0  0  0  0  0  0  0  0  0  0
  -12.0591   -7.7244   13.4221 C   0  0  0  0  0  0  0  0  0  0  0  0
  -10.7522   -7.1322   13.6175 C   0  0  0  0  0  0  0  0  0  0  0  0
  -13.8628   -8.7466   11.9803 C   0  0  0  0  0  0  0  0  0  0  0  0
  -15.1143  -11.4530   13.9661 C   0  0  0  0  0  0  0  0  0  0  0  0
  -15.2935  -10.4709   12.9855 C   0  0  0  0  0  0  0  0  0  0  0  0
  -14.4896   -9.2982   13.0908 N   0  0  0  0  0  0  0  0  0  0  0  0
  -15.5911  -14.4317    9.6763 O   0  0  0  0  0  0  0  0  0  0  0  0
  -10.7674  -13.4925   11.5594 C   0  0  2  0  0  0  0  0  0  0  0  0
  -11.5309  -14.5932   10.8198 C   0  0  0  0  0  0  0  0  0  0  0  0
  -12.4391  -15.4101   11.3732 C   0  0  0  0  0  0  0  0  0  0  0  0
  -13.2080  -16.2766   10.6323 O   0  0  0  0  0  0  0  0  0  0  0  0
  -14.6139  -16.3329   10.9456 C   0  0  1  0  0  0  0  0  0  0  0  0
  -14.8870  -16.6767   12.3369 O   0  0  0  0  0  0  0  0  0  0  0  0
  -15.2471  -17.4072   10.0580 C   0  0  0  0  0  0  0  0  0  0  0  0
  -11.9014   -7.5983   10.9068 C   0  0  0  0  0  0  0  0  0  0  0  0
  -11.0970  -12.2362   10.9581 O   0  0  0  0  0  0  0  0  0  0  0  0
  -12.4978  -11.9725   10.9253 C   0  0  0  0  0  0  0  0  0  0  0  0
   -8.6763  -13.5646   10.0931 C   0  0  0  0  0  0  0  0  0  0  0  0
   -5.7153   -9.3287   13.8277 C   0  0  0  0  0  0  0  0  0  0  0  0
   -7.9388   -6.1003   13.8689 C   0  0  0  0  0  0  0  0  0  0  0  0
   -7.1697  -13.5973   12.7710 O   0  0  0  0  0  0  0  0  0  0  0  0
   -9.3538  -10.3749   14.1259 O   0  0  0  0  0  0  0  0  0  0  0  0
   -6.9400  -14.1697   14.0001 C   0  0  0  0  0  0  0  0  0  0  0  0
   -6.5396  -15.6178   13.8038 C   0  0  0  0  0  0  0  0  0  0  0  0
   -7.1372  -13.6530   15.0641 O   0  0  0  0  0  0  0  0  0  0  0  0
  -14.4856  -11.0497   15.1255 O   0  0  0  0  0  0  0  0  0  0  0  0
  -14.8626  -13.5203   15.9462 O   0  0  0  0  0  0  0  0  0  0  0  0
   -6.8587  -11.1018   11.4324 C   0  0  0  0  0  0  0  0  0  0  0  0
  -14.1361   -9.0269   10.8123 O   0  0  0  0  0  0  0  0  0  0  0  0
  -16.0727  -10.8006   11.8882 C   0  0  0  0  0  0  0  0  0  0  0  0
  -16.2850  -12.1422   11.5717 C   0  0  0  0  0  0  0  0  0  0  0  0
  -17.0210  -12.4595   10.4539 O   0  0  0  0  0  0  0  0  0  0  0  0
  -16.7268   -9.7918   11.0590 C   0  0  0  0  0  0  0  0  0  0  0  0
  -16.8282   -8.5375   11.3699 N   0  0  0  0  0  0  0  0  0  0  0  0
  -17.4557   -7.7475   10.4553 N   0  0  0  0  0  0  0  0  0  0  0  0
  -17.8716   -6.4300   10.9570 C   0  0  0  0  0  0  0  0  0  0  0  0
  -18.6295   -5.5495    9.9341 C   0  0  0  0  0  0  0  0  0  0  0  0
  -18.6109   -6.0041    8.5235 N   0  0  3  0  0  0  0  0  0  0  0  0
  -19.1344   -7.3840    8.5541 C   0  0  0  0  0  0  0  0  0  0  0  0
  -18.4571   -8.3297    9.5497 C   0  0  0  0  0  0  0  0  0  0  0  0
  -17.2597   -5.9319    7.9077 C   0  0  0  0  0  0  0  0  0  0  0  0
  -16.6951   -4.5003    7.8497 C   0  0  0  0  0  0  0  0  0  0  0  0
  -17.4193   -3.8302    6.6853 C   0  0  0  0  0  0  0  0  0  0  0  0
  -17.8366   -4.9666    5.7535 C   0  0  0  0  0  0  0  0  0  0  0  0
  -17.2895   -6.2366    6.3963 C   0  0  0  0  0  0  0  0  0  0  0  0
  -14.8754  -16.3766   15.2256 C   0  0  0  0  0  0  0  0  0  0  0  0
  1  2  2  0  0  0  0
  1  8  1  0  0  0  0
  2 48  1  0  0  0  0
  3  2  1  0  0  0  0
  3  5  2  0  0  0  0
  4  3  1  0  0  0  0
  4 24  2  0  0  0  0
  5  7  1  0  0  0  0
  6 35  1  6  0  0  0
  6 25  1  0  0  0  0
  7  8  2  0  0  0  0
  7 63  1  0  0  0  0
  8 44  1  0  0  0  0
  9 38  1  6  0  0  0
  9  6  1  0  0  0  0
 10  9  1  0  0  0  0
 10 45  1  1  0  0  0
 11 12  1  0  0  0  0
 11 36  1  1  0  0  0
 12 10  1  0  0  0  0
 12 39  1  6  0  0  0
 13 14  1  6  0  0  0
 13 11  1  0  0  0  0
 15 13  1  0  0  0  0
 15 37  1  6  0  0  0
 16 15  1  0  0  0  0
 17 32  1  0  0  0  0
 17 18  2  0  0  0  0
 18 19  1  0  0  0  0
 19 16  2  0  0  0  0
 20 17  1  0  0  0  0
 20 46  2  0  0  0  0
 21 43  1  0  0  0  0
 21  1  1  0  0  0  0
 21 22  2  0  0  0  0
 22 23  1  0  0  0  0
 23 20  1  0  0  0  0
 25 33  1  6  0  0  0
 26 25  1  0  0  0  0
 26 27  2  0  0  0  0
 27 28  1  0  0  0  0
 28 29  1  0  0  0  0
 29  4  1  0  0  0  0
 29 31  1  6  0  0  0
 29 30  1  0  0  0  0
 30  5  1  0  0  0  0
 33 34  1  0  0  0  0
 38 40  1  0  0  0  0
 40 41  1  0  0  0  0
 40 42  2  0  0  0  0
 47 22  1  0  0  0  0
 47 48  2  0  0  0  0
 47 50  1  0  0  0  0
 48 49  1  0  0  0  0
 50 51  2  0  0  0  0
 51 52  1  0  0  0  0
 52 53  1  0  0  0  0
 53 54  1  0  0  0  0
 54 55  1  0  0  0  0
 55 56  1  0  0  0  0
 55 58  1  0  0  0  0
 56 57  1  0  0  0  0
 57 52  1  0  0  0  0
 58 59  1  0  0  0  0
 59 60  1  0  0  0  0
 60 61  1  0  0  0  0
 61 62  1  0  0  0  0
 62 58  1  0  0  0  0
M  END
