
 OpenBabel10141417483D

 28 30  0  0  0  0  0  0  0  0999 V2000
   -2.1181   -3.4488   -3.5060 C   0  0  0  0  0  0  0  0  0  0  0  0
   -0.8221   -3.8501   -3.2373 C   0  0  0  0  0  0  0  0  0  0  0  0
   -0.1709   -3.6291   -2.0014 C   0  0  0  0  0  0  0  0  0  0  0  0
   -0.8302   -2.9261   -0.9644 C   0  0  0  0  0  0  0  0  0  0  0  0
   -2.1761   -2.4825   -1.2594 C   0  0  0  0  0  0  0  0  0  0  0  0
   -2.7970   -2.7933   -2.4981 C   0  0  0  0  0  0  0  0  0  0  0  0
   -0.3538   -2.7793    0.3702 N   0  0  0  0  0  0  0  0  0  0  0  0
    0.7371   -3.2520    1.1763 C   0  0  0  0  0  0  0  0  0  0  0  0
    1.8401   -3.8862    0.7385 N   0  0  0  0  0  0  0  0  0  0  0  0
    2.7378   -4.3075    1.6590 C   0  0  0  0  0  0  0  0  0  0  0  0
    2.7632   -3.8373    2.9120 N   0  0  0  0  0  0  0  0  0  0  0  0
    1.6390   -3.2972    3.3593 C   0  0  0  0  0  0  0  0  0  0  0  0
    0.5459   -3.1596    2.5480 C   0  0  0  0  0  0  0  0  0  0  0  0
    3.5889   -5.3982    1.3689 N   0  0  0  0  0  0  0  0  0  0  0  0
    4.1409   -6.2758    2.3406 C   0  0  0  0  0  0  0  0  0  0  0  0
    5.3389   -6.9652    2.1106 C   0  0  0  0  0  0  0  0  0  0  0  0
    5.8793   -7.8192    3.0903 C   0  0  0  0  0  0  0  0  0  0  0  0
    5.2116   -8.0257    4.3017 C   0  0  0  0  0  0  0  0  0  0  0  0
    3.9904   -7.3968    4.5206 C   0  0  0  0  0  0  0  0  0  0  0  0
    3.4554   -6.5618    3.5369 C   0  0  0  0  0  0  0  0  0  0  0  0
   -3.0908   -1.7218   -0.3182 C   0  0  0  0  0  0  0  0  0  0  0  0
    5.7650   -8.8819    5.3095 C   0  0  0  0  0  0  0  0  0  0  0  0
    6.2051   -9.5756    6.1295 N   0  0  0  0  0  0  0  0  0  0  0  0
   -2.7627   -3.7571   -4.7887 C   0  0  0  0  0  0  0  0  0  0  0  0
   -2.0674   -3.8675   -5.9246 C   0  0  0  0  0  0  0  0  0  0  0  0
   -2.6933   -4.1920   -7.1728 C   0  0  0  0  0  0  0  0  0  0  0  0
   -3.1678   -4.4509   -8.1665 N   0  0  0  0  0  0  0  0  0  0  0  0
    1.2163   -4.2098   -2.0017 C   0  0  0  0  0  0  0  0  0  0  0  0
  1  2  2  0  0  0  0
  1  6  1  0  0  0  0
  1 24  1  0  0  0  0
  2  3  1  0  0  0  0
  3  4  2  0  0  0  0
  3 28  1  0  0  0  0
  4  5  1  0  0  0  0
  4  7  1  0  0  0  0
  5  6  2  0  0  0  0
  5 21  1  0  0  0  0
  7  8  1  0  0  0  0
  8  9  1  0  0  0  0
  8 13  2  0  0  0  0
  9 10  2  0  0  0  0
 10 11  1  0  0  0  0
 10 14  1  0  0  0  0
 11 12  2  0  0  0  0
 12 13  1  0  0  0  0
 14 15  1  0  0  0  0
 15 16  1  0  0  0  0
 15 20  2  0  0  0  0
 16 17  2  0  0  0  0
 17 18  1  0  0  0  0
 18 19  2  0  0  0  0
 18 22  1  0  0  0  0
 19 20  1  0  0  0  0
 22 23  3  0  0  0  0
 24 25  2  0  0  0  0
 25 26  1  0  0  0  0
 26 27  3  0  0  0  0
M  END
