478
 OpenBabel10141417513D

 13 15  0  0  1  0  0  0  0  0999 V2000
    3.4183   -1.1597   -0.4189 N   0  0  0  0  0  0  0  0  0  0  0  0
    2.8874    0.7710    1.1487 C   0  0  3  0  0  0  0  0  0  0  0  0
    2.1647    2.6660    2.7081 C   0  0  3  0  0  0  0  0  0  0  0  0
    4.5844    2.4482    2.0533 C   0  0  3  0  0  0  0  0  0  0  0  0
    3.5450    0.7771    3.6216 C   0  0  3  0  0  0  0  0  0  0  0  0
    1.7675    1.7937    1.5050 C   0  0  0  0  0  0  0  0  0  0  0  0
    4.1841    1.5741    0.8490 C   0  0  0  0  0  0  0  0  0  0  0  0
    3.1461   -0.0951    2.4194 C   0  0  0  0  0  0  0  0  0  0  0  0
    3.4501    3.4358    2.3673 C   0  0  0  0  0  0  0  0  0  0  0  0
    2.4144    1.7686    3.9276 C   0  0  0  0  0  0  0  0  0  0  0  0
    4.8265    1.5516    3.2773 C   0  0  0  0  0  0  0  0  0  0  0  0
    2.4338   -0.1371   -0.0474 C   0  0  3  0  0  0  0  0  0  0  0  0
    2.0849    0.6227   -1.3320 C   0  0  0  0  0  0  0  0  0  0  0  0
  1 12  1  0  0  0  0
  2  6  1  0  0  0  0
  2  7  1  0  0  0  0
  2  8  1  0  0  0  0
  2 12  1  0  0  0  0
  3  6  1  0  0  0  0
  3  9  1  0  0  0  0
  3 10  1  0  0  0  0
  4  7  1  0  0  0  0
  4  9  1  0  0  0  0
  4 11  1  0  0  0  0
  5  8  1  0  0  0  0
  5 10  1  0  0  0  0
  5 11  1  0  0  0  0
 12 13  1  0  0  0  0
M  END
