884
 OpenBabel10141417503D

 17 17  0  0  0  0  0  0  0  0999 V2000
    0.9172    0.0498   -0.0257 P   0  0  0  0  0  0  0  0  0  0  0  0
    3.2098    0.0570    1.7817 P   0  0  0  0  0  0  0  0  0  0  0  0
    3.2188   -1.2181   -0.5873 O   0  0  0  0  0  0  0  0  0  0  0  0
    0.9305    0.1431   -1.6687 O   0  0  0  0  0  0  0  0  0  0  0  0
    0.9231   -1.6050    0.0142 O   0  0  0  0  0  0  0  0  0  0  0  0
    2.5774   -1.2794    2.4315 O   0  0  0  0  0  0  0  0  0  0  0  0
    4.7750   -0.2656    1.9460 O   0  0  0  0  0  0  0  0  0  0  0  0
   -0.6271    0.0498   -0.0257 O   0  0  0  0  0  0  0  0  0  0  0  0
    2.7990    1.2492    2.5674 O   0  0  0  0  0  0  0  0  0  0  0  0
    7.1105    0.2243   -1.5203 N   0  0  0  0  0  0  0  0  0  0  0  0
    2.7472    0.0498   -0.0257 C   0  0  0  0  0  0  0  0  0  0  0  0
    3.4555    1.1897   -0.8068 C   0  0  0  0  0  0  0  0  0  0  0  0
    4.9820    1.2285   -0.8566 C   0  0  0  0  0  0  0  0  0  0  0  0
    5.6942    2.3398   -0.3856 C   0  0  0  0  0  0  0  0  0  0  0  0
    5.7504    0.2256   -1.4525 C   0  0  0  0  0  0  0  0  0  0  0  0
    7.0908    2.3714   -0.4493 C   0  0  0  0  0  0  0  0  0  0  0  0
    7.7513    1.2864   -0.9949 C   0  0  0  0  0  0  0  0  0  0  0  0
  1  4  1  0  0  0  0
  1  5  1  0  0  0  0
  1  8  2  0  0  0  0
  1 11  1  0  0  0  0
  2  6  1  0  0  0  0
  2  7  1  0  0  0  0
  2  9  2  0  0  0  0
  2 11  1  0  0  0  0
  3 11  1  0  0  0  0
 10 15  1  0  0  0  0
 10 17  2  0  0  0  0
 11 12  1  0  0  0  0
 12 13  1  0  0  0  0
 13 14  1  0  0  0  0
 13 15  2  0  0  0  0
 14 16  2  0  0  0  0
 16 17  1  0  0  0  0
M  END
