867
 OpenBabel10141417503D

 21 22  0  0  1  0  0  0  0  0999 V2000
    0.8968   -0.0242   -1.6199 O   0  0  0  0  0  0  0  0  0  0  0  0
   -3.9970    2.0328    1.8416 O   0  0  0  0  0  0  0  0  0  0  0  0
    9.7564    2.6558    0.3384 O   0  0  0  0  0  0  0  0  0  0  0  0
    3.5183    0.8690   -0.6620 N   0  0  0  0  0  0  0  0  0  0  0  0
    2.2244    1.3863   -0.1148 C   0  0  2  0  0  0  0  0  0  0  0  0
    1.0369    0.3683   -0.2451 C   0  0  1  0  0  0  0  0  0  0  0  0
    4.0305   -0.3085    0.0633 C   0  0  0  0  0  0  0  0  0  0  0  0
    1.9064    2.6893   -0.8715 C   0  0  0  0  0  0  0  0  0  0  0  0
   -0.2982    0.8534    0.3073 C   0  0  0  0  0  0  0  0  0  0  0  0
    5.3749   -0.8527   -0.4725 C   0  0  0  0  0  0  0  0  0  0  0  0
    6.5628    0.0623   -0.2854 C   0  0  0  0  0  0  0  0  0  0  0  0
   -1.4527    0.8293   -0.4926 C   0  0  0  0  0  0  0  0  0  0  0  0
   -0.4266    1.2944    1.6371 C   0  0  0  0  0  0  0  0  0  0  0  0
    6.9444    0.9567   -1.2920 C   0  0  0  0  0  0  0  0  0  0  0  0
    7.3061    0.0257    0.9069 C   0  0  0  0  0  0  0  0  0  0  0  0
   -2.6962    1.2213    0.0009 C   0  0  0  0  0  0  0  0  0  0  0  0
   -1.6745    1.6953    2.1341 C   0  0  0  0  0  0  0  0  0  0  0  0
   -2.7992    1.6467    1.3128 C   0  0  0  0  0  0  0  0  0  0  0  0
    8.0211    1.8300   -1.1055 C   0  0  0  0  0  0  0  0  0  0  0  0
    8.3872    0.8913    1.0897 C   0  0  0  0  0  0  0  0  0  0  0  0
    8.7250    1.7955    0.0968 C   0  0  0  0  0  0  0  0  0  0  0  0
  2 18  1  0  0  0  0
  3 21  1  0  0  0  0
  4  7  1  0  0  0  0
  5  4  1  6  0  0  0
  5  6  1  0  0  0  0
  5  8  1  0  0  0  0
  6  1  1  6  0  0  0
  6  9  1  0  0  0  0
  7 10  1  0  0  0  0
  9 12  2  0  0  0  0
  9 13  1  0  0  0  0
 10 11  1  0  0  0  0
 11 14  2  0  0  0  0
 11 15  1  0  0  0  0
 12 16  1  0  0  0  0
 13 17  2  0  0  0  0
 14 19  1  0  0  0  0
 15 20  2  0  0  0  0
 16 18  2  0  0  0  0
 17 18  1  0  0  0  0
 19 21  2  0  0  0  0
 20 21  1  0  0  0  0
M  END
