
 OpenBabel10141417503D

 50 53  0  0  1  0  0  0  0  0999 V2000
   -3.0831   -0.7323    1.2679 S   0  0  0  0  0  0  0  0  0  0  0  0
    2.3972   -2.6875   -4.5592 S   0  0  0  0  0  0  0  0  0  0  0  0
   -0.8318   -5.0369   -3.7536 O   0  0  0  0  0  0  0  0  0  0  0  0
   -1.4144   -9.9013   -0.6267 O   0  0  0  0  0  0  0  0  0  0  0  0
   -0.3219   -3.8525   -5.8548 O   0  0  0  0  0  0  0  0  0  0  0  0
   -1.3567   -2.6573   -7.4370 O   0  0  0  0  0  0  0  0  0  0  0  0
   -0.9770   -7.0282    1.9963 O   0  0  0  0  0  0  0  0  0  0  0  0
   -1.1417   -9.0649   -2.7101 N   0  0  0  0  0  0  0  0  0  0  0  0
   -2.4774   -3.2847   -5.5864 N   0  0  0  0  0  0  0  0  0  0  0  0
   -0.9304   -6.7383   -0.2670 N   0  0  0  0  0  0  0  0  0  0  0  0
   -2.0416   -5.1991    1.1079 N   0  0  0  0  0  0  0  0  0  0  0  0
   -1.4125   -2.3125    0.1297 N   0  0  0  0  0  0  0  0  0  0  0  0
    4.4483   -4.2538   -4.4185 N   0  0  0  0  0  0  0  0  0  0  0  0
   -0.8446   -8.0352   -3.8229 C   0  0  2  0  0  0  0  0  0  0  0  0
   -2.1416   -6.9560   -3.8446 C   0  0  0  0  0  0  0  0  0  0  0  0
   -1.9204   -5.5882   -4.5363 C   0  0  1  0  0  0  0  0  0  0  0  0
   -2.9737   -4.3844   -4.6973 C   0  0  2  0  0  0  0  0  0  0  0  0
   -0.0802   -8.8327   -5.2132 C   0  0  0  0  0  0  0  0  0  0  0  0
   -4.4819   -4.6503   -4.9941 C   0  0  0  0  0  0  0  0  0  0  0  0
   -0.0626   -7.8401   -0.7147 C   0  0  1  0  0  0  0  0  0  0  0  0
    1.0343   -8.3726    0.2737 C   0  0  0  0  0  0  0  0  0  0  0  0
   -0.9291   -9.0070   -1.3286 C   0  0  0  0  0  0  0  0  0  0  0  0
    1.1085   -8.2526   -6.1758 C   0  0  0  0  0  0  0  0  0  0  0  0
   -5.0057   -5.2776   -6.2733 C   0  0  0  0  0  0  0  0  0  0  0  0
    1.8047   -9.5345   -0.3736 C   0  0  0  0  0  0  0  0  0  0  0  0
    2.1725   -7.4380    0.7532 C   0  0  0  0  0  0  0  0  0  0  0  0
    1.3030   -6.9240   -6.1810 C   0  0  0  0  0  0  0  0  0  0  0  0
    2.1320   -8.8397   -7.0345 C   0  0  0  0  0  0  0  0  0  0  0  0
   -1.3764   -3.2275   -6.4575 C   0  0  0  0  0  0  0  0  0  0  0  0
   -5.6080   -4.5414   -7.3197 C   0  0  0  0  0  0  0  0  0  0  0  0
   -5.1705   -6.6633   -6.2934 C   0  0  0  0  0  0  0  0  0  0  0  0
   -1.3066   -6.3853    1.0050 C   0  0  0  0  0  0  0  0  0  0  0  0
    2.3585   -6.3230   -7.0035 C   0  0  0  0  0  0  0  0  0  0  0  0
    3.3621   -8.1783   -7.5554 C   0  0  0  0  0  0  0  0  0  0  0  0
   -6.3020   -5.1849   -8.3639 C   0  0  0  0  0  0  0  0  0  0  0  0
   -5.8795   -7.2952   -7.3164 C   0  0  0  0  0  0  0  0  0  0  0  0
    3.4895   -6.8535   -7.5154 C   0  0  0  0  0  0  0  0  0  0  0  0
   -6.4245   -6.5676   -8.3668 C   0  0  0  0  0  0  0  0  0  0  0  0
   -2.5689   -4.4541   -0.0509 C   0  0  0  0  0  0  0  0  0  0  0  0
   -2.1806   -4.5847    2.4438 C   0  0  0  0  0  0  0  0  0  0  0  0
    0.8183   -4.2194   -6.6098 C   0  0  0  0  0  0  0  0  0  0  0  0
   -2.6103   -2.9921    0.2218 C   0  0  0  0  0  0  0  0  0  0  0  0
    2.2309   -4.1346   -5.4996 C   0  0  0  0  0  0  0  0  0  0  0  0
   -1.4886   -1.1885    0.8039 C   0  0  0  0  0  0  0  0  0  0  0  0
   -3.6576   -2.2678    0.7608 C   0  0  0  0  0  0  0  0  0  0  0  0
   -0.2879   -0.3678    1.1893 C   0  0  0  0  0  0  0  0  0  0  0  0
    0.3128   -0.8343    2.5242 C   0  0  0  0  0  0  0  0  0  0  0  0
    0.7794   -0.4265    0.0950 C   0  0  0  0  0  0  0  0  0  0  0  0
    3.4709   -4.8616   -5.1769 C   0  0  0  0  0  0  0  0  0  0  0  0
    3.9196   -3.1745   -3.9315 C   0  0  0  0  0  0  0  0  0  0  0  0
  1 44  1  0  0  0  0
  1 45  1  0  0  0  0
  2 43  1  0  0  0  0
  2 50  1  0  0  0  0
  4 22  2  0  0  0  0
  5 29  1  0  0  0  0
  5 41  1  0  0  0  0
  6 29  2  0  0  0  0
  7 32  2  0  0  0  0
  8 22  1  0  0  0  0
  9 29  1  0  0  0  0
 10 32  1  0  0  0  0
 11 32  1  0  0  0  0
 11 39  1  0  0  0  0
 11 40  1  0  0  0  0
 12 42  1  0  0  0  0
 12 44  2  0  0  0  0
 13 49  1  0  0  0  0
 13 50  2  0  0  0  0
 14 18  1  6  0  0  0
 14 15  1  0  0  0  0
 14  8  1  0  0  0  0
 16 17  1  0  0  0  0
 16 15  1  1  0  0  0
 16  3  1  0  0  0  0
 17  9  1  6  0  0  0
 17 19  1  0  0  0  0
 18 23  1  0  0  0  0
 19 24  1  0  0  0  0
 20 10  1  1  0  0  0
 20 21  1  0  0  0  0
 20 22  1  0  0  0  0
 21 25  1  0  0  0  0
 21 26  1  0  0  0  0
 23 27  2  0  0  0  0
 23 28  1  0  0  0  0
 24 30  2  0  0  0  0
 24 31  1  0  0  0  0
 27 33  1  0  0  0  0
 28 34  2  0  0  0  0
 30 35  1  0  0  0  0
 31 36  2  0  0  0  0
 33 37  2  0  0  0  0
 34 37  1  0  0  0  0
 35 38  2  0  0  0  0
 36 38  1  0  0  0  0
 39 42  1  0  0  0  0
 41 43  1  0  0  0  0
 42 45  2  0  0  0  0
 43 49  2  0  0  0  0
 44 46  1  0  0  0  0
 46 47  1  0  0  0  0
 46 48  1  0  0  0  0
M  END
