
 OpenBabel10141417483D

 29 32  0  0  1  0  0  0  0  0999 V2000
    0.5810    0.0003    1.7931 C   0  0  0  0  0  0  0  0  0  0  0  0
    0.1935   -1.2500    1.2816 C   0  0  0  0  0  0  0  0  0  0  0  0
   -0.7004   -1.3593    0.2159 C   0  0  0  0  0  0  0  0  0  0  0  0
   -1.1783   -0.1629   -0.3294 C   0  0  0  0  0  0  0  0  0  0  0  0
   -0.7871    1.0891    0.1827 C   0  0  0  0  0  0  0  0  0  0  0  0
    0.0999    1.2033    1.2584 C   0  0  0  0  0  0  0  0  0  0  0  0
    0.4964    2.4768    1.8124 N   0  0  0  0  0  0  0  0  0  0  0  0
    1.2454    2.4797    3.0784 C   0  0  0  0  0  0  0  0  0  0  0  0
    1.1598    3.8030    3.8259 C   0  0  0  0  0  0  0  0  0  0  0  0
    1.6749    4.8304    2.9913 O   0  0  0  0  0  0  0  0  0  0  0  0
    0.8635    4.9554    1.8381 C   0  0  0  0  0  0  0  0  0  0  0  0
    0.3778    3.6868    1.1013 C   0  0  0  0  0  0  0  0  0  0  0  0
   -0.1042    3.8189   -0.0251 O   0  0  0  0  0  0  0  0  0  0  0  0
   -1.1200   -2.6173   -0.2959 N   0  0  0  0  0  0  0  0  0  0  0  0
   -2.1067   -2.7511   -1.3265 C   0  0  0  0  0  0  0  0  0  0  0  0
   -2.2449   -4.2522   -1.5368 C   0  0  1  0  0  0  0  0  0  0  0  0
   -1.3222   -4.8442   -0.6085 O   0  0  0  0  0  0  0  0  0  0  0  0
   -0.6891   -3.8697    0.1209 C   0  0  0  0  0  0  0  0  0  0  0  0
    0.1096   -4.1556    0.9884 O   0  0  0  0  0  0  0  0  0  0  0  0
   -3.6585   -4.7740   -1.2375 C   0  0  0  0  0  0  0  0  0  0  0  0
   -3.7838   -6.2300   -1.3810 N   0  0  0  0  0  0  0  0  0  0  0  0
   -4.0422   -6.8691   -2.5826 C   0  0  0  0  0  0  0  0  0  0  0  0
   -4.1836   -6.2113   -3.6131 O   0  0  0  0  0  0  0  0  0  0  0  0
   -4.1334   -8.3369   -2.5743 C   0  0  0  0  0  0  0  0  0  0  0  0
   -4.3635   -9.1554   -3.6758 C   0  0  0  0  0  0  0  0  0  0  0  0
   -4.4089  -10.5478   -3.3538 C   0  0  0  0  0  0  0  0  0  0  0  0
   -4.2188  -10.7371   -2.0112 C   0  0  0  0  0  0  0  0  0  0  0  0
   -3.9840   -9.2925   -1.1513 S   0  0  0  0  0  0  0  0  0  0  0  0
   -4.2022  -12.2480   -1.1892 Cl  0  0  0  0  0  0  0  0  0  0  0  0
  1  2  2  0  0  0  0
  1  6  1  0  0  0  0
  2  3  1  0  0  0  0
  3  4  2  0  0  0  0
  3 14  1  0  0  0  0
  4  5  1  0  0  0  0
  5  6  2  0  0  0  0
  6  7  1  0  0  0  0
  7  8  1  0  0  0  0
  7 12  1  0  0  0  0
  8  9  1  0  0  0  0
  9 10  1  0  0  0  0
 10 11  1  0  0  0  0
 11 12  1  0  0  0  0
 12 13  2  0  0  0  0
 14 15  1  0  0  0  0
 14 18  1  0  0  0  0
 15 16  1  0  0  0  0
 16 17  1  0  0  0  0
 16 20  1  1  0  0  0
 17 18  1  0  0  0  0
 18 19  2  0  0  0  0
 20 21  1  0  0  0  0
 21 22  1  0  0  0  0
 22 23  2  0  0  0  0
 22 24  1  0  0  0  0
 24 25  2  0  0  0  0
 24 28  1  0  0  0  0
 25 26  1  0  0  0  0
 26 27  2  0  0  0  0
 27 28  1  0  0  0  0
 27 29  1  0  0  0  0
M  END
