989
 OpenBabel10141417503D

 18 18  0  0  1  0  0  0  0  0999 V2000
    0.9198   -0.1525   -0.0668 O   0  0  0  0  0  0  0  0  0  0  0  0
    1.3347   -1.2307    1.9480 O   0  0  0  0  0  0  0  0  0  0  0  0
   -2.6573   -0.4866   -3.6173 N   0  0  0  0  0  0  0  0  0  0  0  0
    1.5203    1.0472    1.8091 N   0  0  0  0  0  0  0  0  0  0  0  0
   -1.8167   -1.6970   -3.8528 C   0  0  2  0  0  0  0  0  0  0  0  0
   -0.8467   -1.9912   -2.7043 C   0  0  0  0  0  0  0  0  0  0  0  0
   -0.9830   -1.5999   -5.1461 C   0  0  0  0  0  0  0  0  0  0  0  0
   -0.3302   -0.9653   -1.9009 C   0  0  0  0  0  0  0  0  0  0  0  0
   -0.4385   -3.3100   -2.4370 C   0  0  0  0  0  0  0  0  0  0  0  0
   -3.5111   -0.1597   -4.7627 C   0  0  0  0  0  0  0  0  0  0  0  0
   -3.5091   -0.6410   -2.4282 C   0  0  0  0  0  0  0  0  0  0  0  0
    0.5137   -1.2542   -0.8322 C   0  0  0  0  0  0  0  0  0  0  0  0
    0.4601   -3.5852   -1.4004 C   0  0  0  0  0  0  0  0  0  0  0  0
    0.9455   -2.5559   -0.5971 C   0  0  0  0  0  0  0  0  0  0  0  0
    1.1613    2.2945    1.1158 C   0  0  0  0  0  0  0  0  0  0  0  0
    1.2513   -0.2027    1.2906 C   0  0  0  0  0  0  0  0  0  0  0  0
    2.0576    1.1403    3.1539 C   0  0  0  0  0  0  0  0  0  0  0  0
    0.2119    3.1653    1.9251 C   0  0  0  0  0  0  0  0  0  0  0  0
  1 12  1  0  0  0  0
  1 16  1  0  0  0  0
  2 16  2  0  0  0  0
  3 10  1  0  0  0  0
  3 11  1  0  0  0  0
  4 15  1  0  0  0  0
  4 16  1  0  0  0  0
  4 17  1  0  0  0  0
  5  3  1  1  0  0  0
  5  6  1  0  0  0  0
  5  7  1  0  0  0  0
  6  8  2  0  0  0  0
  6  9  1  0  0  0  0
  8 12  1  0  0  0  0
  9 13  2  0  0  0  0
 12 14  2  0  0  0  0
 13 14  1  0  0  0  0
 15 18  1  0  0  0  0
M  END
