953
 OpenBabel10141417503D

 20 22  0  0  0  0  0  0  0  0999 V2000
   -1.7566    2.7334    1.0619 N   0  0  0  0  0  0  0  0  0  0  0  0
   -2.8167   -3.0338    0.2279 N   0  0  0  0  0  0  0  0  0  0  0  0
    3.1894    0.4165   -2.0781 N   0  0  0  0  0  0  0  0  0  0  0  0
    3.4225   -0.8317   -2.5354 N   0  0  0  0  0  0  0  0  0  0  0  0
    3.1044    0.6396   -4.2505 N   0  0  0  0  0  0  0  0  0  0  0  0
   -1.8411    0.6981    0.1540 C   0  0  0  0  0  0  0  0  0  0  0  0
   -0.4810    1.1458    0.1629 C   0  0  0  0  0  0  0  0  0  0  0  0
   -2.3424   -0.6120   -0.3787 C   0  0  0  0  0  0  0  0  0  0  0  0
   -0.4586    2.4165    0.7323 C   0  0  0  0  0  0  0  0  0  0  0  0
   -2.3370   -1.7149    0.6957 C   0  0  0  0  0  0  0  0  0  0  0  0
    0.7349    0.5820   -0.2749 C   0  0  0  0  0  0  0  0  0  0  0  0
   -2.5972    1.7103    0.7113 C   0  0  0  0  0  0  0  0  0  0  0  0
    1.9342    1.3095   -0.1576 C   0  0  0  0  0  0  0  0  0  0  0  0
    0.7210    3.1522    0.8938 C   0  0  0  0  0  0  0  0  0  0  0  0
    1.9134    2.5778    0.4367 C   0  0  0  0  0  0  0  0  0  0  0  0
    3.2295    0.7152   -0.6564 C   0  0  0  0  0  0  0  0  0  0  0  0
   -1.9714   -3.5839   -0.8340 C   0  0  0  0  0  0  0  0  0  0  0  0
   -2.8563   -3.9689    1.3574 C   0  0  0  0  0  0  0  0  0  0  0  0
    3.0036    1.2830   -3.1118 C   0  0  0  0  0  0  0  0  0  0  0  0
    3.3538   -0.6437   -3.8554 C   0  0  0  0  0  0  0  0  0  0  0  0
  1  9  1  0  0  0  0
  1 12  1  0  0  0  0
  2 10  1  0  0  0  0
  2 17  1  0  0  0  0
  2 18  1  0  0  0  0
  3  4  1  0  0  0  0
  3 16  1  0  0  0  0
  3 19  1  0  0  0  0
  4 20  2  0  0  0  0
  5 19  2  0  0  0  0
  5 20  1  0  0  0  0
  6  7  1  0  0  0  0
  6  8  1  0  0  0  0
  6 12  2  0  0  0  0
  7  9  2  0  0  0  0
  7 11  1  0  0  0  0
  8 10  1  0  0  0  0
  9 14  1  0  0  0  0
 11 13  2  0  0  0  0
 13 15  1  0  0  0  0
 13 16  1  0  0  0  0
 14 15  2  0  0  0  0
M  END
