1656
 OpenBabel10141417483D

 26 28  0  0  0  0  0  0  0  0999 V2000
   -1.8889   -3.1199    6.0844 Cl  0  0  0  0  0  0  0  0  0  0  0  0
    2.2570   -0.5234    3.6076 Cl  0  0  0  0  0  0  0  0  0  0  0  0
    1.0247   -5.7753   -2.6617 F   0  0  0  0  0  0  0  0  0  0  0  0
    0.8542   -7.9336   -2.8474 F   0  0  0  0  0  0  0  0  0  0  0  0
   -0.9911   -5.1419   -0.6933 O   0  0  0  0  0  0  0  0  0  0  0  0
    1.1890   -7.0705   -0.8213 O   0  0  0  0  0  0  0  0  0  0  0  0
    0.7366   -4.6430    4.9997 O   0  0  0  0  0  0  0  0  0  0  0  0
    0.1901   -2.7399    3.7967 N   0  0  0  0  0  0  0  0  0  0  0  0
    0.5110   -0.1483    7.1616 N   0  0  0  0  0  0  0  0  0  0  0  0
   -1.9086   -3.5708   -2.2323 C   0  0  0  0  0  0  0  0  0  0  0  0
   -2.4457   -2.2064   -2.5907 C   0  0  0  0  0  0  0  0  0  0  0  0
   -3.3150   -3.4191   -2.7579 C   0  0  0  0  0  0  0  0  0  0  0  0
   -1.6339   -3.8705   -0.7877 C   0  0  0  0  0  0  0  0  0  0  0  0
   -0.1709   -5.3501    0.3824 C   0  0  0  0  0  0  0  0  0  0  0  0
    0.8509   -6.3095    0.2646 C   0  0  0  0  0  0  0  0  0  0  0  0
   -0.3428   -4.6623    1.6008 C   0  0  0  0  0  0  0  0  0  0  0  0
    0.5234   -4.8926    2.6769 C   0  0  0  0  0  0  0  0  0  0  0  0
    1.6700   -6.5714    1.3720 C   0  0  0  0  0  0  0  0  0  0  0  0
    1.5026   -5.8783    2.5738 C   0  0  0  0  0  0  0  0  0  0  0  0
    0.4503   -4.0982    3.9382 C   0  0  0  0  0  0  0  0  0  0  0  0
    0.2814   -1.8732    4.9355 C   0  0  0  0  0  0  0  0  0  0  0  0
    0.5211   -6.8788   -2.0535 C   0  0  0  0  0  0  0  0  0  0  0  0
   -0.5439   -2.0365    6.0596 C   0  0  0  0  0  0  0  0  0  0  0  0
    1.1917   -0.8096    4.9338 C   0  0  0  0  0  0  0  0  0  0  0  0
   -0.3757   -1.1737    7.1377 C   0  0  0  0  0  0  0  0  0  0  0  0
    1.2633    0.0171    6.0517 C   0  0  0  0  0  0  0  0  0  0  0  0
  1 23  1  0  0  0  0
  2 24  1  0  0  0  0
  3 22  1  0  0  0  0
  4 22  1  0  0  0  0
  5 13  1  0  0  0  0
  5 14  1  0  0  0  0
  6 15  1  0  0  0  0
  6 22  1  0  0  0  0
  7 20  2  0  0  0  0
  8 20  1  0  0  0  0
  8 21  1  0  0  0  0
  9 25  2  0  0  0  0
  9 26  1  0  0  0  0
 10 11  1  0  0  0  0
 10 12  1  0  0  0  0
 10 13  1  0  0  0  0
 11 12  1  0  0  0  0
 14 15  2  0  0  0  0
 14 16  1  0  0  0  0
 15 18  1  0  0  0  0
 16 17  2  0  0  0  0
 17 19  1  0  0  0  0
 17 20  1  0  0  0  0
 18 19  2  0  0  0  0
 21 23  2  0  0  0  0
 21 24  1  0  0  0  0
 23 25  1  0  0  0  0
 24 26  2  0  0  0  0
M  END
