
 OpenBabel10141417493D

 38 42  0  0  1  0  0  0  0  0999 V2000
   -1.5261    6.6746    3.3881 C   0  0  0  0  0  0  0  0  0  0  0  0
   -0.4755    7.5533    3.6112 C   0  0  0  0  0  0  0  0  0  0  0  0
    0.7812    7.0525    3.9487 C   0  0  0  0  0  0  0  0  0  0  0  0
   -1.3295    5.3015    3.5345 C   0  0  0  0  0  0  0  0  0  0  0  0
   -0.0749    4.7707    3.9034 C   0  0  0  0  0  0  0  0  0  0  0  0
    1.0023    5.6661    4.0681 C   0  0  0  0  0  0  0  0  0  0  0  0
    2.3826    5.1399    4.2667 C   0  0  0  0  0  0  0  0  0  0  0  0
    0.1395    3.2668    4.0503 C   0  0  1  0  0  0  0  0  0  0  0  0
    1.3045    2.9544    5.0540 C   0  0  2  0  0  0  0  0  0  0  0  0
    2.5519    3.7073    4.6734 C   0  0  0  0  0  0  0  0  0  0  0  0
    3.7926    3.1741    4.6972 C   0  0  0  0  0  0  0  0  0  0  0  0
    1.5610    1.4350    5.1724 C   0  0  0  0  0  0  0  0  0  0  0  0
    2.9251    1.0222    5.7848 C   0  0  2  0  0  0  0  0  0  0  0  0
    4.1082    1.7499    5.1272 C   0  0  1  0  0  0  0  0  0  0  0  0
    4.6994    0.9805    3.9132 C   0  0  0  0  0  0  0  0  0  0  0  0
    3.8878   -0.1088    3.3031 C   0  0  0  0  0  0  0  0  0  0  0  0
    3.1635   -0.8534    4.1689 C   0  0  0  0  0  0  0  0  0  0  0  0
    3.0968   -0.5311    5.6652 C   0  0  1  0  0  0  0  0  0  0  0  0
    3.8831   -0.3493    1.8252 C   0  0  0  0  0  0  0  0  0  0  0  0
    4.9270    0.2210    1.1360 N   0  0  0  0  0  0  0  0  0  0  0  0
    5.0283    0.1723   -0.2826 C   0  0  0  0  0  0  0  0  0  0  0  0
    5.7157    1.3794   -0.7069 N   0  0  0  0  0  0  0  0  0  0  0  0
    4.9482    2.6040   -0.4448 C   0  0  0  0  0  0  0  0  0  0  0  0
    5.5063    3.6275   -1.4295 C   0  0  0  0  0  0  0  0  0  0  0  0
    6.3442    2.8225   -2.4129 C   0  0  0  0  0  0  0  0  0  0  0  0
    5.9406    1.3825   -2.1541 C   0  0  0  0  0  0  0  0  0  0  0  0
    4.2442   -1.1367    6.3781 N   0  0  0  0  0  0  0  0  0  0  0  0
    4.2923   -2.5994    6.2493 C   0  0  0  0  0  0  0  0  0  0  0  0
    4.2771   -0.7942    7.8039 C   0  0  0  0  0  0  0  0  0  0  0  0
   -1.1425    2.5243    4.4835 C   0  0  0  0  0  0  0  0  0  0  0  0
    0.4947    2.7426    2.7646 O   0  0  0  0  0  0  0  0  0  0  0  0
    1.7866    7.9473    4.1856 O   0  0  0  0  0  0  0  0  0  0  0  0
    3.3758    5.8306    4.0560 O   0  0  0  0  0  0  0  0  0  0  0  0
    4.9357    3.9182    4.4126 O   0  0  0  0  0  0  0  0  0  0  0  0
    5.8076    1.2476    3.4426 O   0  0  0  0  0  0  0  0  0  0  0  0
    2.9835   -0.9579    1.2541 O   0  0  0  0  0  0  0  0  0  0  0  0
    2.3786   -1.9138    3.7448 O   0  0  0  0  0  0  0  0  0  0  0  0
    5.1514    1.8823    6.1083 O   0  0  0  0  0  0  0  0  0  0  0  0
  1  2  2  0  0  0  0
  2  3  1  0  0  0  0
  3  6  2  0  0  0  0
  3 32  1  0  0  0  0
  4  1  1  0  0  0  0
  5  4  2  0  0  0  0
  5  6  1  0  0  0  0
  6  7  1  0  0  0  0
  7 10  1  0  0  0  0
  7 33  2  0  0  0  0
  8  5  1  0  0  0  0
  8 30  1  1  0  0  0
  8 31  1  0  0  0  0
  9 10  1  6  0  0  0
  9  8  1  0  0  0  0
 10 11  2  0  0  0  0
 11 14  1  0  0  0  0
 11 34  1  0  0  0  0
 12  9  1  0  0  0  0
 13 12  1  6  0  0  0
 13 14  1  0  0  0  0
 14 15  1  0  0  0  0
 14 38  1  1  0  0  0
 15 16  1  0  0  0  0
 15 35  2  0  0  0  0
 16 17  2  0  0  0  0
 16 19  1  0  0  0  0
 17 18  1  0  0  0  0
 17 37  1  0  0  0  0
 18 13  1  0  0  0  0
 18 27  1  1  0  0  0
 19 36  2  0  0  0  0
 19 20  1  0  0  0  0
 20 21  1  0  0  0  0
 21 22  1  0  0  0  0
 22 23  1  0  0  0  0
 23 24  1  0  0  0  0
 24 25  1  0  0  0  0
 25 26  1  0  0  0  0
 26 22  1  0  0  0  0
 27 28  1  0  0  0  0
 27 29  1  0  0  0  0
M  END
