
 OpenBabel10141417483D

 20 21  0  0  0  0  0  0  0  0999 V2000
    3.1053   -3.8976    4.2792 C   0  0  0  0  0  0  0  0  0  0  0  0
    3.1828   -3.4075    2.9552 N   0  0  0  0  0  0  0  0  0  0  0  0
    2.2788   -5.0058    4.5884 C   0  0  0  0  0  0  0  0  0  0  0  0
    2.1584   -5.4159    5.9288 C   0  0  0  0  0  0  0  0  0  0  0  0
    2.8704   -4.7819    6.9403 C   0  0  0  0  0  0  0  0  0  0  0  0
    3.6934   -3.7049    6.6312 C   0  0  0  0  0  0  0  0  0  0  0  0
    3.8015   -3.2293    5.3105 C   0  0  0  0  0  0  0  0  0  0  0  0
    1.4028   -5.7055    3.5802 C   0  0  0  0  0  0  0  0  0  0  0  0
    3.6248   -4.1860    1.8951 C   0  0  0  0  0  0  0  0  0  0  0  0
    4.0496   -5.3418    1.9888 O   0  0  0  0  0  0  0  0  0  0  0  0
    4.7556   -2.0867    5.0851 C   0  0  0  0  0  0  0  0  0  0  0  0
    3.4971   -3.4711    0.5434 C   0  0  1  0  0  0  0  0  0  0  0  0
    4.3161   -2.2192    0.4747 N   0  0  0  0  0  0  0  0  0  0  0  0
    3.9649   -1.5340   -0.7884 C   0  0  0  0  0  0  0  0  0  0  0  0
    4.1886   -2.3843   -2.0451 C   0  0  0  0  0  0  0  0  0  0  0  0
    3.4628   -3.7240   -1.9584 C   0  0  0  0  0  0  0  0  0  0  0  0
    3.7374   -4.4266   -0.6344 C   0  0  0  0  0  0  0  0  0  0  0  0
    5.7714   -2.4740    0.5956 C   0  0  0  0  0  0  0  0  0  0  0  0
    6.6557   -1.2138    0.5352 C   0  0  0  0  0  0  0  0  0  0  0  0
    6.3531   -0.2133    1.6392 C   0  0  0  0  0  0  0  0  0  0  0  0
  2  1  1  0  0  0  0
  3  1  2  0  0  0  0
  4  3  1  0  0  0  0
  5  4  2  0  0  0  0
  6  5  1  0  0  0  0
  7  1  1  0  0  0  0
  7  6  2  0  0  0  0
  8  3  1  0  0  0  0
  9  2  1  0  0  0  0
 10  9  2  0  0  0  0
 11  7  1  0  0  0  0
 12  9  1  1  0  0  0
 13 12  1  0  0  0  0
 14 13  1  0  0  0  0
 15 14  1  0  0  0  0
 16 15  1  0  0  0  0
 17 12  1  0  0  0  0
 17 16  1  0  0  0  0
 18 13  1  0  0  0  0
 19 18  1  0  0  0  0
 20 19  1  0  0  0  0
M  END
