
 OpenBabel10141417493D

 33 34  0  0  1  0  0  0  0  0999 V2000
    3.7808   -8.7330    4.3893 N   0  0  0  0  0  0  0  0  0  0  0  0
    4.9650   -9.1940    3.9858 C   0  0  0  0  0  0  0  0  0  0  0  0
    3.1776   -7.7903    3.6276 C   0  0  0  0  0  0  0  0  0  0  0  0
    3.8114   -7.2740    2.4853 C   0  0  0  0  0  0  0  0  0  0  0  0
    5.0843   -7.7954    2.1898 C   0  0  0  0  0  0  0  0  0  0  0  0
    5.6509   -8.7875    2.9199 N   0  0  0  0  0  0  0  0  0  0  0  0
    5.6460  -10.0706    4.8624 N   0  0  0  0  0  0  0  0  0  0  0  0
    5.9766   -7.2021    1.1010 C   0  0  0  0  0  0  0  0  0  0  0  0
    7.3065   -6.7402    1.7094 C   0  0  0  0  0  0  0  0  0  0  0  0
    6.2239   -8.1806   -0.0450 C   0  0  0  0  0  0  0  0  0  0  0  0
    1.8634   -7.3525    4.1963 C   0  0  0  0  0  0  0  0  0  0  0  0
    0.7823   -6.9071    3.4123 C   0  0  0  0  0  0  0  0  0  0  0  0
   -0.4287   -6.4985    3.9889 C   0  0  0  0  0  0  0  0  0  0  0  0
   -0.5936   -6.5558    5.3640 C   0  0  0  0  0  0  0  0  0  0  0  0
    0.4289   -7.0161    6.1757 C   0  0  0  0  0  0  0  0  0  0  0  0
    1.6418   -7.4080    5.5954 C   0  0  0  0  0  0  0  0  0  0  0  0
   -1.7544   -6.1719    5.9106 F   0  0  0  0  0  0  0  0  0  0  0  0
    3.2485   -6.1988    1.6629 C   0  0  0  0  0  0  0  0  0  0  0  0
    3.4849   -4.9026    1.9185 C   0  0  0  0  0  0  0  0  0  0  0  0
    2.9443   -3.7974    1.0620 C   0  0  2  0  0  0  0  0  0  0  0  0
    3.8565   -2.5678    0.9762 C   0  0  0  0  0  0  0  0  0  0  0  0
    5.2326   -2.8252    0.3497 C   0  0  2  0  0  0  0  0  0  0  0  0
    6.1557   -1.5989    0.3297 C   0  0  0  0  0  0  0  0  0  0  0  0
    5.6595   -0.4767   -0.5570 C   0  0  0  0  0  0  0  0  0  0  0  0
    4.4943   -0.2315   -0.7939 O   0  0  0  0  0  0  0  0  0  0  0  0
    6.6597    0.2824   -1.0669 O   0  0  0  0  0  0  0  0  0  0  0  0
    5.1149   -3.3627   -0.9649 O   0  0  0  0  0  0  0  0  0  0  0  0
    1.7047   -3.3900    1.6376 O   0  0  0  0  0  0  0  0  0  0  0  0
    6.4792  -12.1851    3.4130 C   0  0  0  0  0  0  0  0  0  0  0  0
    5.5496  -12.4331    5.8115 O   0  0  0  0  0  0  0  0  0  0  0  0
    5.2455  -11.6937    4.6049 S   0  0  0  0  0  0  0  0  0  0  0  0
    3.9596  -11.8104    3.9796 O   0  0  0  0  0  0  0  0  0  0  0  0
    5.6076   -9.6361    6.2691 C   0  0  0  0  0  0  0  0  0  0  0  0
  1  2  2  0  0  0  0
  2  7  1  0  0  0  0
  2  6  1  0  0  0  0
  3  1  1  0  0  0  0
  3 11  1  0  0  0  0
  3  4  2  0  0  0  0
  4 18  1  0  0  0  0
  4  5  1  0  0  0  0
  5  8  1  0  0  0  0
  5  6  2  0  0  0  0
  7 31  1  0  0  0  0
  7 33  1  0  0  0  0
  8  9  1  0  0  0  0
  8 10  1  0  0  0  0
 11 12  2  0  0  0  0
 11 16  1  0  0  0  0
 12 13  1  0  0  0  0
 13 14  2  0  0  0  0
 14 17  1  0  0  0  0
 15 14  1  0  0  0  0
 16 15  2  0  0  0  0
 18 19  2  0  0  0  0
 20 28  1  1  0  0  0
 20 21  1  0  0  0  0
 20 19  1  0  0  0  0
 22 27  1  6  0  0  0
 22 23  1  0  0  0  0
 22 21  1  0  0  0  0
 23 24  1  0  0  0  0
 24 25  2  0  0  0  0
 24 26  1  0  0  0  0
 31 29  1  0  0  0  0
 31 30  2  0  0  0  0
 31 32  2  0  0  0  0
M  END
