5105
 OpenBabel10141417503D

 25 26  0  0  0  0  0  0  0  0999 V2000
   -1.9502   -0.9674   -1.3777 O   0  0  0  0  0  0  0  0  0  0  0  0
    3.7060   -3.6523    3.6241 O   0  0  0  0  0  0  0  0  0  0  0  0
    2.4690   -3.2987    1.0945 O   0  0  0  0  0  0  0  0  0  0  0  0
    3.3213   -5.9110    3.5346 O   0  0  0  0  0  0  0  0  0  0  0  0
   -3.5054    2.8300   -5.5358 N   0  0  0  0  0  0  0  0  0  0  0  0
    0.3810   -3.6422    1.9844 N   0  0  0  0  0  0  0  0  0  0  0  0
   -3.4792    4.2638   -5.8817 C   0  0  0  0  0  0  0  0  0  0  0  0
   -4.7024    2.5429   -4.7264 C   0  0  0  0  0  0  0  0  0  0  0  0
   -4.8362    3.4057   -3.4696 C   0  0  0  0  0  0  0  0  0  0  0  0
   -3.5612    5.2062   -4.6734 C   0  0  0  0  0  0  0  0  0  0  0  0
   -4.7773    4.8908   -3.8083 C   0  0  0  0  0  0  0  0  0  0  0  0
   -2.2431    2.3888   -4.9046 C   0  0  0  0  0  0  0  0  0  0  0  0
   -2.2250    0.9200   -4.5076 C   0  0  0  0  0  0  0  0  0  0  0  0
   -2.0191    0.5757   -3.1571 C   0  0  0  0  0  0  0  0  0  0  0  0
   -2.4748   -0.1051   -5.4315 C   0  0  0  0  0  0  0  0  0  0  0  0
   -2.1406   -0.7465   -2.7188 C   0  0  0  0  0  0  0  0  0  0  0  0
   -2.6090   -1.4251   -4.9935 C   0  0  0  0  0  0  0  0  0  0  0  0
   -2.4735   -1.7375   -3.6395 C   0  0  0  0  0  0  0  0  0  0  0  0
   -1.5781   -2.3084   -1.0234 C   0  0  0  0  0  0  0  0  0  0  0  0
   -0.8319   -2.2781    0.3101 C   0  0  0  0  0  0  0  0  0  0  0  0
   -0.3154   -3.6615    0.7054 C   0  0  0  0  0  0  0  0  0  0  0  0
    1.7517   -3.4598    2.0780 C   0  0  0  0  0  0  0  0  0  0  0  0
    2.2982   -3.4209    3.5164 C   0  0  0  0  0  0  0  0  0  0  0  0
    4.0902   -4.9487    3.5798 C   0  0  0  0  0  0  0  0  0  0  0  0
    5.5785   -5.0682    3.6759 C   0  0  0  0  0  0  0  0  0  0  0  0
  1 16  1  0  0  0  0
  1 19  1  0  0  0  0
  2 23  1  0  0  0  0
  2 24  1  0  0  0  0
  3 22  2  0  0  0  0
  4 24  2  0  0  0  0
  5  7  1  0  0  0  0
  5  8  1  0  0  0  0
  5 12  1  0  0  0  0
  6 21  1  0  0  0  0
  6 22  1  0  0  0  0
  7 10  1  0  0  0  0
  8  9  1  0  0  0  0
  9 11  1  0  0  0  0
 10 11  1  0  0  0  0
 12 13  1  0  0  0  0
 13 14  2  0  0  0  0
 13 15  1  0  0  0  0
 14 16  1  0  0  0  0
 15 17  2  0  0  0  0
 16 18  2  0  0  0  0
 17 18  1  0  0  0  0
 19 20  1  0  0  0  0
 20 21  1  0  0  0  0
 22 23  1  0  0  0  0
 24 25  1  0  0  0  0
M  END
