
 OpenBabel10141417483D

 58 60  0  0  1  0  0  0  0  0999 V2000
    2.6734   -1.5744   -2.4801 C   0  0  1  0  0  0  0  0  0  0  0  0
    3.2961   -2.7584   -1.4985 C   0  0  2  0  0  0  0  0  0  0  0  0
    0.2127   -2.7525   -3.5538 C   0  0  0  0  0  0  0  0  0  0  0  0
    3.4653   -4.3413   -1.9068 C   0  0  1  0  0  0  0  0  0  0  0  0
   -1.0764   -2.5994   -4.4420 C   0  0  2  0  0  0  0  0  0  0  0  0
    2.3337   -4.7063   -2.8183 C   0  0  2  0  0  0  0  0  0  0  0  0
   -1.9230   -3.8945   -4.1723 C   0  0  0  0  0  0  0  0  0  0  0  0
    1.7461   -6.0207   -2.5440 C   0  0  0  0  0  0  0  0  0  0  0  0
   -2.1940   -4.8863   -5.3169 C   0  0  1  0  0  0  0  0  0  0  0  0
    1.3532   -6.6857   -3.5806 O   0  0  0  0  0  0  0  0  0  0  0  0
   -2.0018   -6.4039   -5.0678 C   0  0  1  0  0  0  0  0  0  0  0  0
   -0.0341   -7.0822   -3.5884 C   0  0  2  0  0  0  0  0  0  0  0  0
    3.7993   -0.6986   -2.9560 O   0  0  0  0  0  0  0  0  0  0  0  0
    2.3949   -2.7007   -0.2063 C   0  0  0  0  0  0  0  0  0  0  0  0
    3.5280    0.6385   -3.5018 C   0  0  1  0  0  0  0  0  0  0  0  0
    4.7604   -4.7506   -2.4135 O   0  0  0  0  0  0  0  0  0  0  0  0
    2.9389    1.6958   -2.5135 C   0  0  1  0  0  0  0  0  0  0  0  0
    4.6369    1.1048   -4.3054 O   0  0  0  0  0  0  0  0  0  0  0  0
   -0.8659   -2.3633   -5.9382 C   0  0  0  0  0  0  0  0  0  0  0  0
    4.9897   -6.1533   -2.8586 C   0  0  1  0  0  0  0  0  0  0  0  0
    2.6026   -4.4974   -4.2936 C   0  0  0  0  0  0  0  0  0  0  0  0
    3.9974    2.5435   -1.7616 C   0  0  2  0  0  0  0  0  0  0  0  0
    2.0804    2.6302   -3.2203 O   0  0  0  0  0  0  0  0  0  0  0  0
    5.2802    2.2987   -3.8648 C   0  0  1  0  0  0  0  0  0  0  0  0
   -2.4867   -4.1137   -3.0159 N   0  0  0  0  0  0  0  0  0  0  0  0
    6.5166   -6.3276   -3.0034 C   0  0  0  0  0  0  0  0  0  0  0  0
    4.5304   -7.1559   -1.9563 O   0  0  0  0  0  0  0  0  0  0  0  0
    1.4085   -6.3569   -1.3446 O   0  0  0  0  0  0  0  0  0  0  0  0
    5.3845    2.2818   -2.3578 C   0  0  0  0  0  0  0  0  0  0  0  0
    3.9435    2.3222   -0.3103 N   0  0  0  0  0  0  0  0  0  0  0  0
    6.6933    2.3379   -4.4357 C   0  0  0  0  0  0  0  0  0  0  0  0
   -3.6361   -4.5752   -5.7449 C   0  0  0  0  0  0  0  0  0  0  0  0
    4.8228   -8.5166   -2.3678 C   0  0  2  0  0  0  0  0  0  0  0  0
    2.6583    2.5698    0.3466 C   0  0  0  0  0  0  0  0  0  0  0  0
    5.0537    2.8779    0.4506 C   0  0  0  0  0  0  0  0  0  0  0  0
   -2.6541   -7.1131   -6.1493 O   0  0  0  0  0  0  0  0  0  0  0  0
    6.3363   -8.8185   -2.6103 C   0  0  2  0  0  0  0  0  0  0  0  0
    3.8795   -8.9920   -3.4677 C   0  0  0  0  0  0  0  0  0  0  0  0
    6.8848   -8.9885   -1.2778 O   0  0  0  0  0  0  0  0  0  0  0  0
    7.1627   -7.7102   -3.3324 C   0  0  2  0  0  0  0  0  0  0  0  0
   -2.2958   -2.9921   -2.1818 O   0  0  0  0  0  0  0  0  0  0  0  0
   -2.6453   -3.2554   -0.8292 C   0  0  0  0  0  0  0  0  0  0  0  0
   -1.5515   -3.7337   -0.0477 O   0  0  0  0  0  0  0  0  0  0  0  0
   -1.1520   -5.0409   -0.4538 C   0  0  0  0  0  0  0  0  0  0  0  0
   -0.0762   -5.6449    0.4584 C   0  0  0  0  0  0  0  0  0  0  0  0
   -0.4259   -5.8597    1.8154 O   0  0  0  0  0  0  0  0  0  0  0  0
   -0.7257   -4.6455    2.4584 C   0  0  0  0  0  0  0  0  0  0  0  0
   -0.1445   -8.4624   -2.9097 C   0  0  0  0  0  0  0  0  0  0  0  0
   -1.5447   -9.0494   -2.8761 C   0  0  0  0  0  0  0  0  0  0  0  0
    8.4965   -7.5904   -2.7158 O   0  0  0  0  0  0  0  0  0  0  0  0
    9.3871   -8.7009   -2.8220 C   0  0  0  0  0  0  0  0  0  0  0  0
    7.4767   -7.9381   -4.8398 C   0  0  0  0  0  0  0  0  0  0  0  0
   -0.5405   -6.9788   -5.0450 C   0  0  1  0  0  0  0  0  0  0  0  0
    1.4491   -1.7563   -3.6132 C   0  0  1  0  0  0  0  0  0  0  0  0
   -0.5390   -8.3108   -5.6111 O   0  0  0  0  0  0  0  0  0  0  0  0
    0.6384   -0.5792   -3.3691 O   0  0  0  0  0  0  0  0  0  0  0  0
    0.3879   -6.2394   -6.0178 C   0  0  0  0  0  0  0  0  0  0  0  0
    2.0826   -1.6431   -5.0219 C   0  0  0  0  0  0  0  0  0  0  0  0
  1 54  1  0  0  0  0
  1 13  1  6  0  0  0
  2  1  1  0  0  0  0
  2 14  1  1  0  0  0
  2  4  1  0  0  0  0
  3  5  1  0  0  0  0
  4 16  1  6  0  0  0
  4  6  1  0  0  0  0
  5 19  1  6  0  0  0
  5  7  1  0  0  0  0
  6  8  1  0  0  0  0
  6 21  1  6  0  0  0
  7 25  2  3  0  0  0
  8 28  2  0  0  0  0
  8 10  1  0  0  0  0
  9  7  1  0  0  0  0
  9 32  1  1  0  0  0
 11  9  1  0  0  0  0
 11 36  1  6  0  0  0
 11 53  1  0  0  0  0
 12 10  1  0  0  0  0
 12 48  1  6  0  0  0
 15 17  1  0  0  0  0
 15 18  1  0  0  0  0
 15 13  1  1  0  0  0
 17 22  1  0  0  0  0
 17 23  1  6  0  0  0
 18 24  1  0  0  0  0
 20 26  1  0  0  0  0
 20 27  1  0  0  0  0
 20 16  1  1  0  0  0
 22 29  1  0  0  0  0
 22 30  1  1  0  0  0
 24 31  1  6  0  0  0
 24 29  1  0  0  0  0
 25 41  1  0  0  0  0
 26 40  1  0  0  0  0
 27 33  1  0  0  0  0
 30 34  1  0  0  0  0
 30 35  1  0  0  0  0
 33 37  1  0  0  0  0
 33 38  1  6  0  0  0
 37 39  1  1  0  0  0
 40 37  1  0  0  0  0
 40 52  1  6  0  0  0
 40 50  1  0  0  0  0
 41 42  1  0  0  0  0
 42 43  1  0  0  0  0
 43 44  1  0  0  0  0
 44 45  1  0  0  0  0
 45 46  1  0  0  0  0
 46 47  1  0  0  0  0
 48 49  1  0  0  0  0
 50 51  1  0  0  0  0
 53 12  1  0  0  0  0
 53 55  1  6  0  0  0
 53 57  1  0  0  0  0
 54  3  1  0  0  0  0
 54 56  1  1  0  0  0
 54 58  1  0  0  0  0
M  END
