
 OpenBabel10141417523D

 17 18  0  0  0  0  0  0  0  0999 V2000
    2.3728   -0.3241   -2.1849 F   0  0  0  0  0  0  0  0  0  0  0  0
    3.5007   -1.2109    2.3201 F   0  0  0  0  0  0  0  0  0  0  0  0
   -3.1723   -0.9891   -1.1856 O   0  0  0  0  0  0  0  0  0  0  0  0
    0.7052   -1.8394    0.3540 N   0  0  0  0  0  0  0  0  0  0  0  0
    0.2873   -1.9078    1.6321 N   0  0  0  0  0  0  0  0  0  0  0  0
   -1.0146   -1.6549    1.6402 N   0  0  0  0  0  0  0  0  0  0  0  0
   -3.6502   -1.0167    1.0258 N   0  0  0  0  0  0  0  0  0  0  0  0
    2.0948   -2.0856    0.0165 C   0  0  0  0  0  0  0  0  0  0  0  0
    2.9005   -0.8232    0.0648 C   0  0  0  0  0  0  0  0  0  0  0  0
   -0.3293   -1.5717   -0.4916 C   0  0  0  0  0  0  0  0  0  0  0  0
    2.9927    0.0152   -1.0459 C   0  0  0  0  0  0  0  0  0  0  0  0
    3.5560   -0.4317    1.2317 C   0  0  0  0  0  0  0  0  0  0  0  0
   -1.4211   -1.4445    0.3417 C   0  0  0  0  0  0  0  0  0  0  0  0
    3.7222    1.2023   -1.0052 C   0  0  0  0  0  0  0  0  0  0  0  0
    4.2871    0.7535    1.2937 C   0  0  0  0  0  0  0  0  0  0  0  0
    4.3725    1.5747    0.1704 C   0  0  0  0  0  0  0  0  0  0  0  0
   -2.7909   -1.1385   -0.0292 C   0  0  0  0  0  0  0  0  0  0  0  0
  1 11  1  0  0  0  0
  2 12  1  0  0  0  0
  3 17  2  0  0  0  0
  4  5  1  0  0  0  0
  4  8  1  0  0  0  0
  4 10  1  0  0  0  0
  5  6  2  0  0  0  0
  6 13  1  0  0  0  0
  7 17  1  0  0  0  0
  8  9  1  0  0  0  0
  9 11  2  0  0  0  0
  9 12  1  0  0  0  0
 10 13  2  0  0  0  0
 11 14  1  0  0  0  0
 12 15  2  0  0  0  0
 13 17  1  0  0  0  0
 14 16  2  0  0  0  0
 15 16  1  0  0  0  0
M  END
