
 OpenBabel10141417523D

 23 26  0  0  1  0  0  0  0  0999 V2000
   -2.5164   -8.5605    4.3511 C   0  0  0  0  0  0  0  0  0  0  0  0
   -2.7551   -9.4588    5.3705 C   0  0  0  0  0  0  0  0  0  0  0  0
   -2.9833  -10.6844    4.8010 N   0  0  0  0  0  0  0  0  0  0  0  0
   -2.9039  -10.5822    3.4392 C   0  0  0  0  0  0  0  0  0  0  0  0
   -2.6135   -9.2635    3.1148 C   0  0  0  0  0  0  0  0  0  0  0  0
   -2.4800   -8.9937    1.7483 C   0  0  0  0  0  0  0  0  0  0  0  0
   -2.6368   -9.9954    0.8453 N   0  0  0  0  0  0  0  0  0  0  0  0
   -2.9294  -11.2223    1.3131 C   0  0  0  0  0  0  0  0  0  0  0  0
   -3.0790  -11.6069    2.5917 N   0  0  0  0  0  0  0  0  0  0  0  0
   -2.1484   -7.6791    1.2499 C   0  0  0  0  0  0  0  0  0  0  0  0
   -2.4115   -6.3834    1.7436 C   0  0  0  0  0  0  0  0  0  0  0  0
   -1.8955   -5.4192    0.9745 N   0  0  0  0  0  0  0  0  0  0  0  0
   -1.3205   -6.0978   -0.0358 N   0  0  0  0  0  0  0  0  0  0  0  0
   -1.4483   -7.4509    0.0816 C   0  0  0  0  0  0  0  0  0  0  0  0
   -0.6241   -5.3685   -1.0983 C   0  0  2  0  0  0  0  0  0  0  0  0
    0.6060   -4.6359   -0.5321 C   0  0  0  0  0  0  0  0  0  0  0  0
    1.5543   -5.5527    0.1257 C   0  0  0  0  0  0  0  0  0  0  0  0
    2.3174   -6.2652    0.6277 N   0  0  0  0  0  0  0  0  0  0  0  0
   -1.5861   -4.3962   -1.8334 C   0  0  0  0  0  0  0  0  0  0  0  0
   -2.8511   -5.0680   -2.4119 C   0  0  0  0  0  0  0  0  0  0  0  0
   -2.9869   -4.5785   -3.8518 C   0  0  0  0  0  0  0  0  0  0  0  0
   -2.1301   -3.3284   -3.9218 C   0  0  0  0  0  0  0  0  0  0  0  0
   -0.9489   -3.6770   -3.0307 C   0  0  0  0  0  0  0  0  0  0  0  0
  1  2  2  0  0  0  0
  1  5  1  0  0  0  0
  2  3  1  0  0  0  0
  3  4  1  0  0  0  0
  4  5  1  0  0  0  0
  4  9  2  0  0  0  0
  5  6  2  0  0  0  0
  6  7  1  0  0  0  0
  6 10  1  0  0  0  0
  7  8  2  0  0  0  0
  8  9  1  0  0  0  0
 10 11  1  0  0  0  0
 10 14  2  0  0  0  0
 11 12  2  0  0  0  0
 12 13  1  0  0  0  0
 13 14  1  0  0  0  0
 15 19  1  1  0  0  0
 15 16  1  0  0  0  0
 15 13  1  0  0  0  0
 16 17  1  0  0  0  0
 17 18  3  0  0  0  0
 19 20  1  0  0  0  0
 19 23  1  0  0  0  0
 20 21  1  0  0  0  0
 21 22  1  0  0  0  0
 22 23  1  0  0  0  0
M  END
