118
 OpenBabel10141418123D

 27 29  0  0  1  0  0  0  0  0999 V2000
   -1.2882    2.1650    4.4155 S   0  3  3  0  0  0  0  0  0  0  0  0
   -3.2006    4.9423    2.1434 O   0  0  0  0  0  0  0  0  0  0  0  0
   -0.0920    5.4230    3.8037 O   0  0  0  0  0  0  0  0  0  0  0  0
   -1.2133    7.3071    2.4524 O   0  0  0  0  0  0  0  0  0  0  0  0
   -4.7779   -0.6440    6.6130 O   0  0  0  0  0  0  0  0  0  0  0  0
   -3.5443   -0.5847    8.4700 O   0  0  0  0  0  0  0  0  0  0  0  0
   -4.6403    6.2625    3.4173 N   0  0  0  0  0  0  0  0  0  0  0  0
   -6.8496    6.3674    3.7401 N   0  0  0  0  0  0  0  0  0  0  0  0
   -3.9252    5.7119    5.6823 N   0  0  0  0  0  0  0  0  0  0  0  0
   -2.9372   -2.1662    5.2746 N   0  0  0  0  0  0  0  0  0  0  0  0
   -5.8089    5.4920    7.1913 N   0  0  0  0  0  0  0  0  0  0  0  0
   -8.0464    5.7981    6.5465 N   0  0  0  0  0  0  0  0  0  0  0  0
   -2.0831    4.3344    2.8275 C   0  0  1  0  0  0  0  0  0  0  0  0
   -1.5232    5.3512    3.8291 C   0  0  2  0  0  0  0  0  0  0  0  0
   -2.1171    6.6765    3.3840 C   0  0  2  0  0  0  0  0  0  0  0  0
   -3.4017    6.2728    2.6645 C   0  0  1  0  0  0  0  0  0  0  0  0
   -2.5954    3.0600    3.5066 C   0  0  0  0  0  0  0  0  0  0  0  0
   -2.3884    0.8329    5.0231 C   0  0  0  0  0  0  0  0  0  0  0  0
   -4.8417    5.9870    4.7422 C   0  0  0  0  0  0  0  0  0  0  0  0
   -5.8789    6.4717    2.8574 C   0  0  0  0  0  0  0  0  0  0  0  0
   -1.6093   -0.1620    5.8833 C   0  0  0  0  0  0  0  0  0  0  0  0
   -0.6222    1.2493    3.0018 C   0  0  0  0  0  0  0  0  0  0  0  0
   -6.2156    6.0399    4.9191 C   0  0  0  0  0  0  0  0  0  0  0  0
   -2.4617   -1.3280    6.3966 C   0  0  1  0  0  0  0  0  0  0  0  0
   -6.6978    5.7722    6.2123 C   0  0  0  0  0  0  0  0  0  0  0  0
   -3.6184   -0.8334    7.2708 C   0  0  0  0  0  0  0  0  0  0  0  0
   -4.4989    5.4691    6.8764 C   0  0  0  0  0  0  0  0  0  0  0  0
  1 17  1  0  0  0  0
  1 18  1  0  0  0  0
  1 22  1  0  0  0  0
  2 13  1  0  0  0  0
  2 16  1  0  0  0  0
  5 26  1  0  0  0  0
  6 26  2  0  0  0  0
  7 19  1  0  0  0  0
  7 20  1  0  0  0  0
  8 20  2  0  0  0  0
  8 23  1  0  0  0  0
  9 19  2  0  0  0  0
  9 27  1  0  0  0  0
 11 25  1  0  0  0  0
 11 27  2  0  0  0  0
 12 25  1  0  0  0  0
 13 14  1  0  0  0  0
 13 17  1  1  0  0  0
 14  3  1  6  0  0  0
 14 15  1  0  0  0  0
 15  4  1  6  0  0  0
 15 16  1  0  0  0  0
 16  7  1  1  0  0  0
 18 21  1  0  0  0  0
 19 23  1  0  0  0  0
 23 25  2  0  0  0  0
 24 26  1  6  0  0  0
 24 21  1  0  0  0  0
 24 10  1  0  0  0  0
M  CHG  1   1   1
M  END
