936
 OpenBabel10141417503D

 10 10  0  0  0  0  0  0  0  0999 V2000
    0.9304   -0.2015    0.3620 O   0  0  0  0  0  0  0  0  0  0  0  0
    0.9435    2.3612    0.2833 O   0  0  0  0  0  0  0  0  0  0  0  0
    2.8081    3.5405   -0.0513 O   0  0  0  0  0  0  0  0  0  0  0  0
    2.9457    1.1342    0.0092 C   0  0  0  0  0  0  0  0  0  0  0  0
    2.2781   -0.0899    0.1513 C   0  0  0  0  0  0  0  0  0  0  0  0
    4.3329    1.1324   -0.2039 C   0  0  0  0  0  0  0  0  0  0  0  0
    2.9830   -1.2915    0.0817 C   0  0  0  0  0  0  0  0  0  0  0  0
    5.0372   -0.0720   -0.2730 C   0  0  0  0  0  0  0  0  0  0  0  0
    4.3616   -1.2827   -0.1302 C   0  0  0  0  0  0  0  0  0  0  0  0
    2.2729    2.4545    0.0700 C   0  0  0  0  0  0  0  0  0  0  0  0
  1  5  1  0  0  0  0
  2 10  1  0  0  0  0
  3 10  2  0  0  0  0
  4  5  1  0  0  0  0
  4  6  2  0  0  0  0
  4 10  1  0  0  0  0
  5  7  2  0  0  0  0
  6  8  1  0  0  0  0
  7  9  1  0  0  0  0
  8  9  2  0  0  0  0
M  END
