
 OpenBabel10141417543D

 11 10  0  0  0  0  0  0  0  0999 V2000
   -0.8533   -1.2700   -0.5235 C   0  0  0  0  0  0  0  0  0  0  0  0
   -1.6697   -0.1479   -0.6538 C   0  0  0  0  0  0  0  0  0  0  0  0
   -1.1395    1.1243   -0.4472 C   0  0  0  0  0  0  0  0  0  0  0  0
    0.2048    1.2691   -0.1111 C   0  0  0  0  0  0  0  0  0  0  0  0
    1.0455    0.1554    0.0257 C   0  0  0  0  0  0  0  0  0  0  0  0
    0.4945   -1.1193   -0.1862 C   0  0  0  0  0  0  0  0  0  0  0  0
    2.4772    0.3067    0.3841 C   0  0  0  0  0  0  0  0  0  0  0  0
    3.2582   -0.6966    0.5144 O   0  0  0  0  0  0  0  0  0  0  0  0
    2.9692    1.4775    0.5751 O   0  5  0  0  0  0  0  0  0  0  0  0
    0.6573    2.5491    0.0769 O   0  0  0  0  0  0  0  0  0  0  0  0
    4.8954    0.5543    0.9919 Na  0  3  0  0  0 15  0  0  0  0  0  0
  1  2  2  0  0  0  0
  1  6  1  0  0  0  0
  2  3  1  0  0  0  0
  3  4  2  0  0  0  0
  4  5  1  0  0  0  0
  4 10  1  0  0  0  0
  5  6  2  0  0  0  0
  5  7  1  0  0  0  0
  7  8  2  0  0  0  0
  7  9  1  0  0  0  0
M  CHG  2   9  -1  11   1
M  END
