938
 OpenBabel10141417503D

 30 31  0  0  1  0  0  0  0  0999 V2000
   -1.0382    4.4017   -3.3374 O   0  0  0  0  0  0  0  0  0  0  0  0
   -2.3830    1.2745    6.1398 O   0  0  0  0  0  0  0  0  0  0  0  0
   -7.4333   -0.3059    9.6949 O   0  0  0  0  0  0  0  0  0  0  0  0
   -5.6468    0.4646   11.4737 O   0  0  0  0  0  0  0  0  0  0  0  0
   -3.1347    2.7274    3.7453 N   0  0  0  0  0  0  0  0  0  0  0  0
   -2.5220    3.3650    0.7364 C   0  0  0  0  0  0  0  0  0  0  0  0
   -1.5935    3.8259   -0.4069 C   0  0  0  0  0  0  0  0  0  0  0  0
   -2.6165    4.3836    1.8827 C   0  0  0  0  0  0  0  0  0  0  0  0
   -1.5574    2.7974   -1.5492 C   0  0  0  0  0  0  0  0  0  0  0  0
   -3.5312    3.9692    3.0566 C   0  0  0  0  0  0  0  0  0  0  0  0
   -4.0852    2.4367    4.8548 C   0  0  0  0  0  0  0  0  0  0  0  0
   -0.6262    3.1859   -2.7053 C   0  0  0  0  0  0  0  0  0  0  0  0
   -3.7125    1.1342    5.6225 C   0  0  3  0  0  0  0  0  0  0  0  0
   -0.5733    6.1063   -5.0028 C   0  0  0  0  0  0  0  0  0  0  0  0
    0.3099    6.5329   -6.1841 C   0  0  0  0  0  0  0  0  0  0  0  0
   -0.1722    4.7435   -4.4318 C   0  0  0  0  0  0  0  0  0  0  0  0
   -4.6968    0.7892    6.7316 C   0  0  0  0  0  0  0  0  0  0  0  0
   -0.0490    7.9035   -6.7817 C   0  0  0  0  0  0  0  0  0  0  0  0
   -4.2739    0.6458    8.0699 C   0  0  0  0  0  0  0  0  0  0  0  0
   -1.4398    8.0082   -7.3607 C   0  0  0  0  0  0  0  0  0  0  0  0
   -6.0508    0.5695    6.4465 C   0  0  0  0  0  0  0  0  0  0  0  0
   -5.1724    0.3199    9.1055 C   0  0  0  0  0  0  0  0  0  0  0  0
   -6.9515    0.2150    7.4550 C   0  0  0  0  0  0  0  0  0  0  0  0
   -6.5030    0.0787    8.7703 C   0  0  0  0  0  0  0  0  0  0  0  0
   -2.5091    8.4492   -6.5759 C   0  0  0  0  0  0  0  0  0  0  0  0
   -1.6812    7.6744   -8.7047 C   0  0  0  0  0  0  0  0  0  0  0  0
   -4.6287    0.2009   10.5080 C   0  0  0  0  0  0  0  0  0  0  0  0
   -3.7946    8.5644   -7.1088 C   0  0  0  0  0  0  0  0  0  0  0  0
   -2.9671    7.7972   -9.2389 C   0  0  0  0  0  0  0  0  0  0  0  0
   -4.0194    8.2406   -8.4498 C   0  0  0  0  0  0  0  0  0  0  0  0
  1 12  1  0  0  0  0
  1 16  1  0  0  0  0
  2 13  1  0  0  0  0
  3 24  1  0  0  0  0
  4 27  1  0  0  0  0
  5 10  1  0  0  0  0
  5 11  1  0  0  0  0
  6  7  1  0  0  0  0
  6  8  1  0  0  0  0
  7  9  1  0  0  0  0
  8 10  1  0  0  0  0
  9 12  1  0  0  0  0
 11 13  1  0  0  0  0
 13 17  1  0  0  0  0
 14 15  1  0  0  0  0
 14 16  1  0  0  0  0
 15 18  1  0  0  0  0
 17 19  2  0  0  0  0
 17 21  1  0  0  0  0
 18 20  1  0  0  0  0
 19 22  1  0  0  0  0
 20 25  2  0  0  0  0
 20 26  1  0  0  0  0
 21 23  2  0  0  0  0
 22 24  2  0  0  0  0
 22 27  1  0  0  0  0
 23 24  1  0  0  0  0
 25 28  1  0  0  0  0
 26 29  2  0  0  0  0
 28 30  2  0  0  0  0
 29 30  1  0  0  0  0
M  END
