11243969
 OpenBabel10141417533D

 23 27  0  0  1  0  0  0  0  0999 V2000
   -4.5605    5.1360    4.1962 O   0  0  0  0  0  0  0  0  0  0  0  0
   -4.1513    3.5675   -0.7437 O   0  0  0  0  0  0  0  0  0  0  0  0
   -5.8265    4.4619   -1.9358 N   0  0  0  0  0  0  0  0  0  0  0  0
   -6.9127    1.8113   -0.5651 N   0  0  0  0  0  0  0  0  0  0  0  0
   -3.6530    7.1770   -1.7041 N   0  0  0  0  0  0  0  0  0  0  0  0
   -5.8711    2.7794    1.5213 C   0  0  3  0  0  0  0  0  0  0  0  0
   -4.9163    3.8913    3.6105 C   0  0  3  0  0  0  0  0  0  0  0  0
   -6.4025    1.8836    3.8669 C   0  0  3  0  0  0  0  0  0  0  0  0
   -4.0872    1.6138    2.9332 C   0  0  3  0  0  0  0  0  0  0  0  0
   -5.4682    4.1232    2.1927 C   0  0  0  0  0  0  0  0  0  0  0  0
   -4.6392    1.8280    1.5192 C   0  0  0  0  0  0  0  0  0  0  0  0
   -6.9525    2.1252    2.4448 C   0  0  0  0  0  0  0  0  0  0  0  0
   -3.6884    2.9707    3.5343 C   0  0  0  0  0  0  0  0  0  0  0  0
   -5.9931    3.2276    4.4811 C   0  0  0  0  0  0  0  0  0  0  0  0
   -5.1735    0.9631    3.7934 C   0  0  0  0  0  0  0  0  0  0  0  0
   -6.4254    3.0544    0.0763 C   0  0  1  0  0  0  0  0  0  0  0  0
   -7.1713    4.7813   -2.3013 C   0  0  2  0  0  0  0  0  0  0  0  0
   -7.1394    5.5594   -3.5879 C   0  0  1  0  0  0  0  0  0  0  0  0
   -7.6480    6.2047   -2.3250 C   0  0  0  0  0  0  0  0  0  0  0  0
   -5.6997    5.6116   -4.0371 C   0  0  0  0  0  0  0  0  0  0  0  0
   -5.3680    3.7112   -0.8746 C   0  0  0  0  0  0  0  0  0  0  0  0
   -4.8570    5.1186   -2.8398 C   0  0  1  0  0  0  0  0  0  0  0  0
   -4.1703    6.2603   -2.1878 C   0  0  0  0  0  0  0  0  0  0  0  0
  1  7  1  0  0  0  0
  2 21  2  0  0  0  0
  3 22  1  0  0  0  0
  3 21  1  0  0  0  0
  5 23  3  0  0  0  0
  6 10  1  0  0  0  0
  6 11  1  0  0  0  0
  6 12  1  0  0  0  0
  7 10  1  0  0  0  0
  7 13  1  0  0  0  0
  7 14  1  0  0  0  0
  8 12  1  0  0  0  0
  8 14  1  0  0  0  0
  8 15  1  0  0  0  0
  9 11  1  0  0  0  0
  9 13  1  0  0  0  0
  9 15  1  0  0  0  0
 16 21  1  6  0  0  0
 16  6  1  0  0  0  0
 16  4  1  0  0  0  0
 17  3  1  1  0  0  0
 17 18  1  0  0  0  0
 17 19  1  0  0  0  0
 18 19  1  1  0  0  0
 18 20  1  0  0  0  0
 20 22  1  0  0  0  0
 22 23  1  1  0  0  0
M  END
