
 OpenBabel10141417483D

 31 35  0  0  0  0  0  0  0  0999 V2000
   11.9571    0.1758   -1.8178 Cl  0  0  0  0  0  0  0  0  0  0  0  0
    1.7165    2.2790   -4.3573 F   0  0  0  0  0  0  0  0  0  0  0  0
    2.4111   -1.9251    1.6192 O   0  0  0  0  0  0  0  0  0  0  0  0
    6.0451   -4.8754    2.0392 N   0  0  0  0  0  0  0  0  0  0  0  0
    6.0743   -0.2872   -1.9762 N   0  0  0  0  0  0  0  0  0  0  0  0
    2.2919   -4.1591    2.3283 N   0  0  0  0  0  0  0  0  0  0  0  0
    0.5703   -3.2666    1.2065 N   0  0  0  0  0  0  0  0  0  0  0  0
    7.4465   -2.8052    0.4370 C   0  0  0  0  0  0  0  0  0  0  0  0
    6.7928   -2.4940    1.7965 C   0  0  0  0  0  0  0  0  0  0  0  0
    7.0548   -4.1778   -0.1482 C   0  0  0  0  0  0  0  0  0  0  0  0
    6.6634   -3.7178    2.7006 C   0  0  0  0  0  0  0  0  0  0  0  0
    6.9016   -5.2698    0.9099 C   0  0  0  0  0  0  0  0  0  0  0  0
    7.1736   -1.7005   -0.5688 C   0  0  0  0  0  0  0  0  0  0  0  0
    4.6437   -4.6419    1.6132 C   0  0  0  0  0  0  0  0  0  0  0  0
    8.1335   -0.8964   -1.2462 C   0  0  0  0  0  0  0  0  0  0  0  0
    3.6619   -4.3673    2.7733 C   0  0  0  0  0  0  0  0  0  0  0  0
    5.9369   -1.2826   -1.0230 C   0  0  0  0  0  0  0  0  0  0  0  0
    7.4499   -0.0662   -2.1565 C   0  0  0  0  0  0  0  0  0  0  0  0
    1.3412   -5.2386    2.1690 C   0  0  0  0  0  0  0  0  0  0  0  0
    9.5423   -0.8201   -1.1536 C   0  0  0  0  0  0  0  0  0  0  0  0
    0.0778   -4.5179    1.7190 C   0  0  0  0  0  0  0  0  0  0  0  0
    8.1774    0.8277   -2.9737 C   0  0  0  0  0  0  0  0  0  0  0  0
    4.9589    0.3684   -2.6079 C   0  0  0  0  0  0  0  0  0  0  0  0
    1.8315   -3.0012    1.7163 C   0  0  0  0  0  0  0  0  0  0  0  0
   10.2441    0.0714   -1.9598 C   0  0  0  0  0  0  0  0  0  0  0  0
    9.5744    0.8773   -2.8664 C   0  0  0  0  0  0  0  0  0  0  0  0
    5.0421    0.8692   -3.9150 C   0  0  0  0  0  0  0  0  0  0  0  0
    3.7388    0.5029   -1.9131 C   0  0  0  0  0  0  0  0  0  0  0  0
    3.9417    1.5087   -4.5051 C   0  0  0  0  0  0  0  0  0  0  0  0
    2.6488    1.1605   -2.5010 C   0  0  0  0  0  0  0  0  0  0  0  0
    2.7601    1.6576   -3.7912 C   0  0  0  0  0  0  0  0  0  0  0  0
  1 25  1  0  0  0  0
  2 31  1  0  0  0  0
  3 24  2  0  0  0  0
  4 11  1  0  0  0  0
  4 12  1  0  0  0  0
  4 14  1  0  0  0  0
  5 17  1  0  0  0  0
  5 18  1  0  0  0  0
  5 23  1  0  0  0  0
  6 16  1  0  0  0  0
  6 19  1  0  0  0  0
  6 24  1  0  0  0  0
  7 21  1  0  0  0  0
  7 24  1  0  0  0  0
  8  9  1  0  0  0  0
  8 10  1  0  0  0  0
  8 13  1  0  0  0  0
  9 11  1  0  0  0  0
 10 12  1  0  0  0  0
 13 15  1  0  0  0  0
 13 17  2  0  0  0  0
 14 16  1  0  0  0  0
 15 18  2  0  0  0  0
 15 20  1  0  0  0  0
 18 22  1  0  0  0  0
 19 21  1  0  0  0  0
 20 25  2  0  0  0  0
 22 26  2  0  0  0  0
 23 27  2  0  0  0  0
 23 28  1  0  0  0  0
 25 26  1  0  0  0  0
 27 29  1  0  0  0  0
 28 30  2  0  0  0  0
 29 31  2  0  0  0  0
 30 31  1  0  0  0  0
M  END
