1153
 OpenBabel10141417503D

 27 30  0  0  1  0  0  0  0  0999 V2000
    2.4280   -0.8822   -1.4511 Cl  0  0  0  0  0  0  0  0  0  0  0  0
    0.1754   -0.0283    7.5363 Cl  0  0  0  0  0  0  0  0  0  0  0  0
    7.5452   -2.2445   -0.7210 Cl  0  0  0  0  0  0  0  0  0  0  0  0
    0.1254    2.2635    5.0235 S   0  0  0  0  0  0  0  0  0  0  0  0
    2.7490    1.8442    1.1494 O   0  0  0  0  0  0  0  0  0  0  0  0
    2.5400    4.3393   -0.3622 N   0  0  0  0  0  0  0  0  0  0  0  0
    0.7939    5.6096   -0.8475 N   0  0  0  0  0  0  0  0  0  0  0  0
    3.1625    1.9267   -0.2197 C   0  0  3  0  0  0  0  0  0  0  0  0
    3.6161    3.3722   -0.5175 C   0  0  0  0  0  0  0  0  0  0  0  0
    4.2593    0.8787   -0.3847 C   0  0  0  0  0  0  0  0  0  0  0  0
    1.3721    1.4885    1.2869 C   0  0  0  0  0  0  0  0  0  0  0  0
    0.9849    1.4815    2.7313 C   0  0  0  0  0  0  0  0  0  0  0  0
    1.1165    0.3409    3.6142 C   0  0  0  0  0  0  0  0  0  0  0  0
    3.9987   -0.4049   -0.9069 C   0  0  0  0  0  0  0  0  0  0  0  0
    5.5696    1.1387    0.0684 C   0  0  0  0  0  0  0  0  0  0  0  0
    0.6751    0.6303    4.9136 C   0  0  0  0  0  0  0  0  0  0  0  0
    0.4582    2.5744    3.3875 C   0  0  0  0  0  0  0  0  0  0  0  0
    2.2602    5.0480    0.7737 C   0  0  0  0  0  0  0  0  0  0  0  0
    1.6422    4.7222   -1.3155 C   0  0  0  0  0  0  0  0  0  0  0  0
    1.6060   -0.9672    3.3538 C   0  0  0  0  0  0  0  0  0  0  0  0
    5.0105   -1.3686   -1.0051 C   0  0  0  0  0  0  0  0  0  0  0  0
    6.5839    0.1822   -0.0459 C   0  0  0  0  0  0  0  0  0  0  0  0
    0.7143   -0.3512    5.9288 C   0  0  0  0  0  0  0  0  0  0  0  0
    6.2998   -1.0665   -0.5841 C   0  0  0  0  0  0  0  0  0  0  0  0
    1.1752    5.8255    0.4519 C   0  0  0  0  0  0  0  0  0  0  0  0
    1.6415   -1.9368    4.3576 C   0  0  0  0  0  0  0  0  0  0  0  0
    1.1988   -1.6291    5.6343 C   0  0  0  0  0  0  0  0  0  0  0  0
  1 14  1  0  0  0  0
  2 23  1  0  0  0  0
  3 24  1  0  0  0  0
  4 16  1  0  0  0  0
  4 17  1  0  0  0  0
  5  8  1  0  0  0  0
  5 11  1  0  0  0  0
  6  9  1  0  0  0  0
  6 18  1  0  0  0  0
  6 19  1  0  0  0  0
  7 19  2  0  0  0  0
  7 25  1  0  0  0  0
  8  9  1  0  0  0  0
  8 10  1  0  0  0  0
 10 14  2  0  0  0  0
 10 15  1  0  0  0  0
 11 12  1  0  0  0  0
 12 13  1  0  0  0  0
 12 17  2  0  0  0  0
 13 16  2  0  0  0  0
 13 20  1  0  0  0  0
 14 21  1  0  0  0  0
 15 22  2  0  0  0  0
 16 23  1  0  0  0  0
 18 25  2  0  0  0  0
 20 26  2  0  0  0  0
 21 24  2  0  0  0  0
 22 24  1  0  0  0  0
 23 27  2  0  0  0  0
 26 27  1  0  0  0  0
M  END
