658
 OpenBabel10141417493D

  9  8  0  0  1  0  0  0  0  0999 V2000
    3.2858   -1.8951    0.0817 Cl  0  0  0  0  0  0  0  0  0  0  0  0
    5.3764    0.8941    2.0375 O   0  0  0  0  0  0  0  0  0  0  0  0
   -0.2434    1.0029   -1.1316 N   0  0  0  0  0  0  0  0  0  0  0  0
    4.7277    0.1603    0.9868 C   0  0  3  0  0  0  0  0  0  0  0  0
    4.1679    1.4582    1.5122 C   0  0  0  0  0  0  0  0  0  0  0  0
    4.1928   -1.1604    1.4216 C   0  0  0  0  0  0  0  0  0  0  0  0
    1.2004    1.1614   -1.0832 C   0  0  0  0  0  0  0  0  0  0  0  0
    1.5874    2.4290   -1.7716 C   0  0  0  0  0  0  0  0  0  0  0  0
    2.4209    2.4985   -2.8151 C   0  0  0  0  0  0  0  0  0  0  0  0
  1  6  1  0  0  0  0
  2  4  1  0  0  0  0
  2  5  1  0  0  0  0
  3  7  1  0  0  0  0
  4  5  1  0  0  0  0
  4  6  1  0  0  0  0
  7  8  1  0  0  0  0
  8  9  2  0  0  0  0
M  END
