1236
 OpenBabel10141417533D

 12 11  0  0  0  0  0  0  0  0999 V2000
    1.3823    0.4131    0.3251 F   0  0  0  0  0  0  0  0  0  0  0  0
    1.7342   -1.7015    0.6166 F   0  0  0  0  0  0  0  0  0  0  0  0
    1.3698   -0.9119   -1.3891 F   0  0  0  0  0  0  0  0  0  0  0  0
    5.3967   -1.6634   -1.0214 F   0  0  0  0  0  0  0  0  0  0  0  0
    3.7374   -2.7945   -0.1985 F   0  0  0  0  0  0  0  0  0  0  0  0
    3.6042   -1.9543   -2.2095 F   0  0  0  0  0  0  0  0  0  0  0  0
    4.0975    2.1304    0.0842 F   0  0  0  0  0  0  0  0  0  0  0  0
    4.1747    0.0004    0.7941 O   0  0  0  0  0  0  0  0  0  0  0  0
    3.4756   -0.4208   -0.4053 C   0  0  0  0  0  0  0  0  0  0  0  0
    1.9940   -0.6747   -0.2104 C   0  0  0  0  0  0  0  0  0  0  0  0
    4.0423   -1.7210   -0.9459 C   0  0  0  0  0  0  0  0  0  0  0  0
    3.8815    1.3441    1.1610 C   0  0  0  0  0  0  0  0  0  0  0  0
  1 10  1  0  0  0  0
  2 10  1  0  0  0  0
  3 10  1  0  0  0  0
  4 11  1  0  0  0  0
  5 11  1  0  0  0  0
  6 11  1  0  0  0  0
  7 12  1  0  0  0  0
  8  9  1  0  0  0  0
  8 12  1  0  0  0  0
  9 10  1  0  0  0  0
  9 11  1  0  0  0  0
M  END
