5212
 OpenBabel10141418003D

 33 36  0  0  0  0  0  0  0  0999 V2000
    0.3622    0.4385    0.7156 S   0  0  0  0  0  0  0  0  0  0  0  0
   -0.3606    0.8814   -0.4621 O   0  0  0  0  0  0  0  0  0  0  0  0
    0.1037   -0.8528    1.3151 O   0  0  0  0  0  0  0  0  0  0  0  0
    6.1947    0.7615   -0.5098 O   0  0  0  0  0  0  0  0  0  0  0  0
    3.2270    6.1765   -1.8697 O   0  0  0  0  0  0  0  0  0  0  0  0
    0.2051    1.6164    1.9302 N   0  0  0  0  0  0  0  0  0  0  0  0
    0.6138    3.7475    3.9487 N   0  0  0  0  0  0  0  0  0  0  0  0
    5.6318    2.9229   -2.0214 N   0  0  0  0  0  0  0  0  0  0  0  0
    5.7844    6.0595   -3.4240 N   0  0  0  0  0  0  0  0  0  0  0  0
    6.9856    5.6469   -3.8971 N   0  0  0  0  0  0  0  0  0  0  0  0
    3.6818    4.0332   -1.1924 N   0  0  0  0  0  0  0  0  0  0  0  0
    0.8694    1.3175    3.2302 C   0  0  0  0  0  0  0  0  0  0  0  0
    0.3740    3.0404    1.5187 C   0  0  0  0  0  0  0  0  0  0  0  0
    0.4104    2.3276    4.3023 C   0  0  0  0  0  0  0  0  0  0  0  0
   -0.0230    4.0142    2.6408 C   0  0  0  0  0  0  0  0  0  0  0  0
    2.0957    0.4955    0.3034 C   0  0  0  0  0  0  0  0  0  0  0  0
    2.0302    4.1124    3.9570 C   0  0  0  0  0  0  0  0  0  0  0  0
    2.6318    1.6342   -0.2998 C   0  0  0  0  0  0  0  0  0  0  0  0
    4.0063    1.7322   -0.5684 C   0  0  0  0  0  0  0  0  0  0  0  0
    2.9112   -0.5966    0.5741 C   0  0  0  0  0  0  0  0  0  0  0  0
    4.4620    2.9853   -1.2842 C   0  0  0  0  0  0  0  0  0  0  0  0
    5.9973    4.0457   -2.6507 C   0  0  0  0  0  0  0  0  0  0  0  0
    4.8478    0.6478   -0.2473 C   0  0  0  0  0  0  0  0  0  0  0  0
    4.2843   -0.5075    0.3268 C   0  0  0  0  0  0  0  0  0  0  0  0
    7.1298    4.4058   -3.4005 C   0  0  0  0  0  0  0  0  0  0  0  0
    5.1872    5.1409   -2.6165 C   0  0  0  0  0  0  0  0  0  0  0  0
    8.3809    3.6359   -3.6709 C   0  0  0  0  0  0  0  0  0  0  0  0
    3.9591    5.2014   -1.8878 C   0  0  0  0  0  0  0  0  0  0  0  0
    9.4653    3.8245   -2.6029 C   0  0  0  0  0  0  0  0  0  0  0  0
    5.2363    7.3130   -3.8839 C   0  0  0  0  0  0  0  0  0  0  0  0
    9.9537    5.2625   -2.4749 C   0  0  0  0  0  0  0  0  0  0  0  0
    6.8942   -0.4746   -0.6991 C   0  0  0  0  0  0  0  0  0  0  0  0
    8.1723   -0.2182   -1.4773 C   0  0  0  0  0  0  0  0  0  0  0  0
  1  2  2  0  0  0  0
  1  3  2  0  0  0  0
  1  6  1  0  0  0  0
  1 16  1  0  0  0  0
  4 23  1  0  0  0  0
  4 32  1  0  0  0  0
  5 28  2  0  0  0  0
  6 12  1  0  0  0  0
  6 13  1  0  0  0  0
  7 14  1  0  0  0  0
  7 15  1  0  0  0  0
  7 17  1  0  0  0  0
  8 21  1  0  0  0  0
  8 22  1  0  0  0  0
  9 10  1  0  0  0  0
  9 26  1  0  0  0  0
  9 30  1  0  0  0  0
 10 25  2  0  0  0  0
 11 21  2  0  0  0  0
 11 28  1  0  0  0  0
 12 14  1  0  0  0  0
 13 15  1  0  0  0  0
 16 18  2  0  0  0  0
 16 20  1  0  0  0  0
 18 19  1  0  0  0  0
 19 21  1  0  0  0  0
 19 23  2  0  0  0  0
 20 24  2  0  0  0  0
 22 25  1  0  0  0  0
 22 26  2  0  0  0  0
 23 24  1  0  0  0  0
 25 27  1  0  0  0  0
 26 28  1  0  0  0  0
 27 29  1  0  0  0  0
 29 31  1  0  0  0  0
 32 33  1  0  0  0  0
M  END
