
 OpenBabel10141417533D

 35 37  0  0  1  0  0  0  0  0999 V2000
   16.7775    1.4212   -9.6358 F   0  0  0  0  0  0  0  0  0  0  0  0
   17.7346    1.5686   -7.6820 F   0  0  0  0  0  0  0  0  0  0  0  0
   16.0644    2.8746   -8.1766 F   0  0  0  0  0  0  0  0  0  0  0  0
   18.1263    6.4753   -3.0444 O   0  0  0  0  0  0  0  0  0  0  0  0
   12.1762    7.5724   -0.3650 O   0  0  0  0  0  0  0  0  0  0  0  0
   12.8613    0.3283   -6.6616 O   0  0  0  0  0  0  0  0  0  0  0  0
   15.0627   -0.3129   -8.7011 O   0  0  0  0  0  0  0  0  0  0  0  0
   15.1571    4.4563   -0.4653 N   0  0  0  0  0  0  0  0  0  0  0  0
   10.6363    1.0637   -3.6872 N   0  0  0  0  0  0  0  0  0  0  0  0
   14.1151    6.8634    0.5196 N   0  0  0  0  0  0  0  0  0  0  0  0
   13.7338    4.3459   -0.7573 C   0  0  0  0  0  0  0  0  0  0  0  0
   15.4218    3.0103   -0.1062 C   0  0  0  0  0  0  0  0  0  0  0  0
   13.4039    3.0531   -1.1181 C   0  0  0  0  0  0  0  0  0  0  0  0
   14.5418    2.1164   -0.9773 C   0  0  0  0  0  0  0  0  0  0  0  0
   15.8602    4.9166   -1.7307 C   0  0  0  0  0  0  0  0  0  0  0  0
   11.2890    3.7768   -1.9901 C   0  0  0  0  0  0  0  0  0  0  0  0
   12.7713    5.3432   -0.8290 C   0  0  0  0  0  0  0  0  0  0  0  0
   12.2097    2.7727   -1.7141 C   0  0  0  0  0  0  0  0  0  0  0  0
   10.1236    3.5234   -2.9259 C   0  0  0  0  0  0  0  0  0  0  0  0
   11.5486    5.0675   -1.4800 C   0  0  0  0  0  0  0  0  0  0  0  0
    9.6991    2.0354   -3.0882 C   0  0  1  0  0  0  0  0  0  0  0  0
   16.0528    6.4441   -1.7476 C   0  0  0  0  0  0  0  0  0  0  0  0
   12.9636    6.6966   -0.2213 C   0  0  0  0  0  0  0  0  0  0  0  0
    8.4191    1.9183   -3.9078 C   0  0  0  0  0  0  0  0  0  0  0  0
   16.8300    7.0315   -2.9198 C   0  0  0  0  0  0  0  0  0  0  0  0
   11.4083    1.4639   -4.8814 C   0  0  0  0  0  0  0  0  0  0  0  0
   12.2552    0.2495   -5.3510 C   0  0  0  0  0  0  0  0  0  0  0  0
   12.9822   -0.8507   -7.3851 C   0  0  0  0  0  0  0  0  0  0  0  0
   13.9288   -1.0382   -8.4168 C   0  0  0  0  0  0  0  0  0  0  0  0
   12.0908   -1.9095   -7.1672 C   0  0  0  0  0  0  0  0  0  0  0  0
   13.8007   -2.1591   -9.2816 C   0  0  0  0  0  0  0  0  0  0  0  0
   11.9459   -2.9853   -8.0372 C   0  0  0  0  0  0  0  0  0  0  0  0
   12.7823   -3.0999   -9.1243 C   0  0  0  0  0  0  0  0  0  0  0  0
   15.5505    0.6113   -7.7259 C   0  0  0  0  0  0  0  0  0  0  0  0
   16.5409    1.6119   -8.3209 C   0  0  0  0  0  0  0  0  0  0  0  0
  1 35  1  0  0  0  0
  2 35  1  0  0  0  0
  3 35  1  0  0  0  0
  4 25  1  0  0  0  0
  5 23  2  0  0  0  0
  6 27  1  0  0  0  0
  6 28  1  0  0  0  0
  7 29  1  0  0  0  0
  7 34  1  0  0  0  0
  8 11  1  0  0  0  0
  8 12  1  0  0  0  0
  8 15  1  0  0  0  0
  9 26  1  0  0  0  0
 10 23  1  0  0  0  0
 11 13  2  0  0  0  0
 11 17  1  0  0  0  0
 12 14  1  0  0  0  0
 13 14  1  0  0  0  0
 13 18  1  0  0  0  0
 15 22  1  0  0  0  0
 16 18  2  0  0  0  0
 16 19  1  0  0  0  0
 16 20  1  0  0  0  0
 17 20  2  0  0  0  0
 17 23  1  0  0  0  0
 19 21  1  0  0  0  0
 21  9  1  6  0  0  0
 21 24  1  0  0  0  0
 22 25  1  0  0  0  0
 26 27  1  0  0  0  0
 28 29  1  0  0  0  0
 28 30  2  0  0  0  0
 29 31  2  0  0  0  0
 30 32  1  0  0  0  0
 31 33  1  0  0  0  0
 32 33  2  0  0  0  0
 34 35  1  0  0  0  0
M  END
