
 OpenBabel10141418013D

 18 18  0  0  0  0  0  0  0  0999 V2000
   -1.5724   -1.7623    0.3050 Ag  0  3  0  0  0 15  0  0  0  0  0  0
    1.2008    0.2227   -0.0173 S   0  0  0  0  0  0  0  0  0  0  0  0
    0.6952    0.9657    1.2290 O   0  0  0  0  0  0  0  0  0  0  0  0
    0.5168    0.9555   -1.1816 O   0  0  0  0  0  0  0  0  0  0  0  0
    0.4397   -1.3590    0.0443 N   0  5  0  0  0  0  0  0  0  0  0  0
    7.1845    0.1401   -0.5458 N   0  0  0  0  0  0  0  0  0  0  0  0
   -1.2386   -1.9006   -1.6017 N   0  0  0  0  0  0  0  0  0  0  0  0
    0.8924   -2.8944   -1.7342 N   0  0  0  0  0  0  0  0  0  0  0  0
    2.9843    0.1858   -0.1450 C   0  0  0  0  0  0  0  0  0  0  0  0
    3.6981    1.3877   -0.2033 C   0  0  0  0  0  0  0  0  0  0  0  0
    3.6667   -1.0352   -0.2002 C   0  0  0  0  0  0  0  0  0  0  0  0
    5.7762    0.1532   -0.3974 C   0  0  0  0  0  0  0  0  0  0  0  0
    5.0882    1.3729   -0.3291 C   0  0  0  0  0  0  0  0  0  0  0  0
    5.0601   -1.0522   -0.3260 C   0  0  0  0  0  0  0  0  0  0  0  0
    0.0190   -2.0627   -1.1080 C   0  0  0  0  0  0  0  0  0  0  0  0
   -1.6382   -2.5621   -2.7201 C   0  0  0  0  0  0  0  0  0  0  0  0
    0.5318   -3.5682   -2.8571 C   0  0  0  0  0  0  0  0  0  0  0  0
   -0.7511   -3.4128   -3.3766 C   0  0  0  0  0  0  0  0  0  0  0  0
  2  3  2  0  0  0  0
  2  4  2  0  0  0  0
  2  5  1  0  0  0  0
  2  9  1  0  0  0  0
  5 15  1  0  0  0  0
  6 12  1  0  0  0  0
  7 15  1  0  0  0  0
  7 16  2  0  0  0  0
  8 15  2  0  0  0  0
  8 17  1  0  0  0  0
  9 10  2  0  0  0  0
  9 11  1  0  0  0  0
 10 13  1  0  0  0  0
 11 14  2  0  0  0  0
 12 13  2  0  0  0  0
 12 14  1  0  0  0  0
 16 18  1  0  0  0  0
 17 18  2  0  0  0  0
M  CHG  2   1   1   5  -1
M  END
