
 OpenBabel10141417523D

 52 58  0  0  0  0  0  0  0  0999 V2000
   -2.4335    5.2013   11.7082 C   0  0  0  0  0  0  0  0  0  0  0  0
   -2.0019    4.7507   12.9657 C   0  0  0  0  0  0  0  0  0  0  0  0
   -1.5811    3.4339   13.1397 C   0  0  0  0  0  0  0  0  0  0  0  0
   -1.6125    2.5550   12.0423 C   0  0  0  0  0  0  0  0  0  0  0  0
   -2.0128    3.0073   10.7759 C   0  0  0  0  0  0  0  0  0  0  0  0
   -2.4111    4.3570   10.5754 C   0  0  0  0  0  0  0  0  0  0  0  0
   -2.0008    2.1195    9.7742 N   0  0  0  0  0  0  0  0  0  0  0  0
   -2.3686    2.4960    8.5389 C   0  0  0  0  0  0  0  0  0  0  0  0
   -2.7355    3.7914    8.2429 C   0  0  0  0  0  0  0  0  0  0  0  0
   -2.7522    4.7567    9.2459 C   0  0  0  0  0  0  0  0  0  0  0  0
   -2.6882    1.7042    6.2196 N   0  0  0  0  0  0  0  0  0  0  0  0
   -2.3490    1.4766    7.4786 C   0  0  0  0  0  0  0  0  0  0  0  0
   -1.8558   -0.1398    7.8081 S   0  0  0  0  0  0  0  0  0  0  0  0
   -2.0961   -0.5447    6.1672 C   0  0  0  0  0  0  0  0  0  0  0  0
   -2.5427    0.5550    5.4603 C   0  0  0  0  0  0  0  0  0  0  0  0
   -1.1980    1.1097   12.2385 C   0  0  0  0  0  0  0  0  0  0  0  0
   -1.1389    2.8992   14.3237 O   0  0  0  0  0  0  0  0  0  0  0  0
   -1.1011    3.7536   15.4602 C   0  0  0  0  0  0  0  0  0  0  0  0
   -3.0596    6.0869    8.9786 O   0  0  0  0  0  0  0  0  0  0  0  0
   -3.3781    8.8531    7.3130 C   0  0  2  0  0  0  0  0  0  0  0  0
   -4.2642    7.6211    7.4725 C   0  0  0  0  0  0  0  0  0  0  0  0
   -3.3238    6.4324    7.5992 C   0  0  3  0  0  0  0  0  0  0  0  0
   -2.0554    6.8558    6.8452 C   0  0  0  0  0  0  0  0  0  0  0  0
   -1.9432    8.3807    7.0024 C   0  0  1  0  0  0  0  0  0  0  0  0
   -4.0220    9.9421    6.4575 C   0  0  0  0  0  0  0  0  0  0  0  0
   -1.1621    9.1831    5.9341 C   0  0  0  0  0  0  0  0  0  0  0  0
   -1.2738   10.4027    5.8463 O   0  0  0  0  0  0  0  0  0  0  0  0
   -0.2391    8.4588    5.1987 N   0  0  0  0  0  0  0  0  0  0  0  0
   -4.1545    9.8309    5.0751 N   0  0  0  0  0  0  0  0  0  0  0  0
   -4.4614   10.9292    7.0638 O   0  0  0  0  0  0  0  0  0  0  0  0
    0.7366    9.0231    4.2486 C   0  0  1  0  0  0  0  0  0  0  0  0
    2.1659    9.0939    4.7699 C   0  0  0  0  0  0  0  0  0  0  0  0
    3.1402    8.1256    4.4849 N   0  0  0  0  0  0  0  0  0  0  0  0
    2.5069   10.0314    5.4793 O   0  0  0  0  0  0  0  0  0  0  0  0
    3.0555    6.6544    3.7422 S   0  0  0  0  0  0  0  0  0  0  0  0
    2.2780    5.7778    4.6065 O   0  0  0  0  0  0  0  0  0  0  0  0
    2.7157    6.8405    2.3632 O   0  0  0  0  0  0  0  0  0  0  0  0
    4.7828    5.9987    3.7709 C   0  0  0  0  0  0  0  0  0  0  0  0
    0.5181    8.8335    2.7401 C   0  0  2  0  0  0  0  0  0  0  0  0
    0.3350   10.1932    3.3418 C   0  0  0  0  0  0  0  0  0  0  0  0
   -0.7013    8.1992    2.2215 C   0  0  0  0  0  0  0  0  0  0  0  0
   -1.2284    7.0366    2.6351 C   0  0  0  0  0  0  0  0  0  0  0  0
   -2.6045    6.5182    2.3349 C   0  0  0  0  0  0  0  0  0  0  0  0
   -3.6876    7.5263    1.9227 C   0  0  0  0  0  0  0  0  0  0  0  0
   -3.8504    8.7952    2.7770 C   0  0  0  0  0  0  0  0  0  0  0  0
   -4.0969    8.5862    4.2787 C   0  0  0  0  0  0  0  0  0  0  0  0
   -4.6441   11.0296    4.3998 C   0  0  0  0  0  0  0  0  0  0  0  0
    5.7614    6.8701    3.0154 C   0  0  0  0  0  0  0  0  0  0  0  0
    5.3016    5.5694    2.4181 C   0  0  0  0  0  0  0  0  0  0  0  0
   -2.8627    0.6231    3.9935 C   0  0  0  0  0  0  0  0  0  0  0  0
   -1.6418    0.2772    3.1401 C   0  0  0  0  0  0  0  0  0  0  0  0
   -4.0513   -0.2683    3.6331 C   0  0  0  0  0  0  0  0  0  0  0  0
  1  2  1  0  0  0  0
  1  6  2  0  0  0  0
  2  3  2  0  0  0  0
  3  4  1  0  0  0  0
  3 17  1  0  0  0  0
  4  5  2  0  0  0  0
  4 16  1  0  0  0  0
  5  6  1  0  0  0  0
  5  7  1  0  0  0  0
  7  8  2  0  0  0  0
  8  9  1  0  0  0  0
  8 12  1  0  0  0  0
  9 10  2  0  0  0  0
 10  6  1  0  0  0  0
 10 19  1  0  0  0  0
 11 12  2  0  0  0  0
 11 15  1  0  0  0  0
 12 13  1  0  0  0  0
 13 14  1  0  0  0  0
 14 15  2  0  0  0  0
 15 50  1  0  0  0  0
 17 18  1  0  0  0  0
 19 22  1  0  0  0  0
 20 21  1  1  0  0  0
 20 24  1  0  0  0  0
 20 25  1  0  0  0  0
 21 22  1  0  0  0  0
 22 23  1  0  0  0  0
 24 23  1  6  0  0  0
 24 26  1  0  0  0  0
 25 29  1  0  0  0  0
 25 30  2  0  0  0  0
 26 27  2  0  0  0  0
 26 28  1  0  0  0  0
 28 31  1  0  0  0  0
 29 47  1  0  0  0  0
 31 32  1  1  0  0  0
 31 39  1  0  0  0  0
 31 40  1  0  0  0  0
 32 33  1  0  0  0  0
 32 34  2  0  0  0  0
 33 35  1  0  0  0  0
 35 36  2  0  0  0  0
 35 37  2  0  0  0  0
 35 38  1  0  0  0  0
 38 48  1  0  0  0  0
 38 49  1  0  0  0  0
 39 40  1  6  0  0  0
 39 41  1  0  0  0  0
 41 42  2  0  0  0  0
 42 43  1  0  0  0  0
 43 44  1  0  0  0  0
 44 45  1  0  0  0  0
 45 46  1  0  0  0  0
 46 29  1  0  0  0  0
 49 48  1  0  0  0  0
 50 51  1  0  0  0  0
 50 52  1  0  0  0  0
M  END
