
 OpenBabel10141419023D

 30 32  0  0  1  0  0  0  0  0999 V2000
   -0.6534   -3.8723   -6.2089 C   0  0  2  0  0  0  0  0  0  0  0  0
    0.1778   -3.9906   -7.5230 C   0  0  1  0  0  0  0  0  0  0  0  0
    0.6055   -5.4400   -7.7801 C   0  0  0  0  0  0  0  0  0  0  0  0
   -0.3075   -3.4475   -8.9215 C   0  0  2  0  0  0  0  0  0  0  0  0
   -1.6491   -5.0312   -6.0387 C   0  0  0  0  0  0  0  0  0  0  0  0
    1.5251   -5.6433   -8.8837 C   0  0  0  0  0  0  0  0  0  0  0  0
    0.1330   -6.4906   -7.0895 C   0  0  0  0  0  0  0  0  0  0  0  0
    0.9554   -3.3952   -9.8593 C   0  0  2  0  0  0  0  0  0  0  0  0
   -0.9125   -6.3887   -6.0109 C   0  0  2  0  0  0  0  0  0  0  0  0
    1.7081   -4.7084   -9.8274 C   0  0  0  0  0  0  0  0  0  0  0  0
   -1.1033   -2.1344   -8.9397 C   0  0  0  0  0  0  0  0  0  0  0  0
   -1.9016   -7.5546   -6.1088 C   0  0  0  0  0  0  0  0  0  0  0  0
    1.9324   -2.2497   -9.5405 C   0  0  0  0  0  0  0  0  0  0  0  0
   -1.5133   -1.5434  -10.3149 C   0  0  0  0  0  0  0  0  0  0  0  0
   -2.4229   -2.4339  -11.1852 C   0  0  1  0  0  0  0  0  0  0  0  0
   -3.6375   -2.6504  -10.4405 O   0  0  0  0  0  0  0  0  0  0  0  0
   -4.8457   -2.8535  -10.9974 C   0  0  0  0  0  0  0  0  0  0  0  0
   -5.0137   -2.7237  -12.4872 C   0  0  0  0  0  0  0  0  0  0  0  0
   -3.7427   -2.5776  -13.2947 C   0  0  1  0  0  0  0  0  0  0  0  0
   -2.6979   -1.7813  -12.5381 C   0  0  0  0  0  0  0  0  0  0  0  0
   -3.2158   -3.8549  -13.6430 O   0  0  0  0  0  0  0  0  0  0  0  0
   -5.8264   -3.0634  -10.2850 O   0  0  0  0  0  0  0  0  0  0  0  0
    0.7286   -1.6486   -5.5884 O   0  0  0  0  0  0  0  0  0  0  0  0
   -0.4853   -1.5623   -5.6388 C   0  0  0  0  0  0  0  0  0  0  0  0
   -1.3094   -2.5973   -6.0072 O   0  0  0  0  0  0  0  0  0  0  0  0
   -1.4088    0.4885   -6.7194 C   0  0  0  0  0  0  0  0  0  0  0  0
   -2.1254    1.8307   -6.7047 C   0  0  0  0  0  0  0  0  0  0  0  0
   -2.6002   -0.4977   -4.6909 C   0  0  0  0  0  0  0  0  0  0  0  0
   -1.2456   -0.2419   -5.3660 C   0  0  0  0  0  0  0  0  0  0  0  0
   -0.3819    0.5970   -4.4006 C   0  0  0  0  0  0  0  0  0  0  0  0
  1  5  1  0  0  0  0
  1 25  1  6  0  0  0
  2  1  1  0  0  0  0
  2  3  1  6  0  0  0
  2  4  1  0  0  0  0
  3  6  1  0  0  0  0
  3  7  2  0  0  0  0
  4 11  1  1  0  0  0
  4  8  1  0  0  0  0
  5  9  1  0  0  0  0
  6 10  2  0  0  0  0
  7  9  1  0  0  0  0
  8 13  1  1  0  0  0
  8 10  1  0  0  0  0
  9 12  1  6  0  0  0
 11 14  1  0  0  0  0
 15 16  1  0  0  0  0
 15 20  1  0  0  0  0
 15 14  1  1  0  0  0
 16 17  1  0  0  0  0
 17 18  1  0  0  0  0
 17 22  2  0  0  0  0
 18 19  1  0  0  0  0
 19 20  1  0  0  0  0
 19 21  1  1  0  0  0
 23 24  2  0  0  0  0
 24 29  1  0  0  0  0
 24 25  1  0  0  0  0
 26 27  1  0  0  0  0
 29 26  1  0  0  0  0
 29 28  1  0  0  0  0
 29 30  1  0  0  0  0
M  END
