ChEBI
 OpenBabel10141417493D

 65 68  0  0  1  0  0  0  0  0999 V2000
   -9.6862   -4.5245   -1.9082 C   0  0  0  0  0  0  0  0  0  0  0  0
   -8.4643   -4.2250   -2.8194 C   0  0  2  0  0  0  0  0  0  0  0  0
   -9.2812   -5.1322   -0.5524 C   0  0  0  0  0  0  0  0  0  0  0  0
   -7.4208   -5.2101   -2.4986 N   0  0  0  0  0  0  0  0  0  0  0  0
   -7.8900   -4.6659   -0.1353 C   0  0  0  0  0  0  0  0  0  0  0  0
   -6.8357   -5.0641   -1.1680 C   0  0  0  0  0  0  0  0  0  0  0  0
   -8.0560   -2.7265   -2.7233 C   0  0  0  0  0  0  0  0  0  0  0  0
   -8.8963   -1.8425   -2.5529 O   0  0  0  0  0  0  0  0  0  0  0  0
   -6.3517   -7.2256   -2.8474 O   0  0  0  0  0  0  0  0  0  0  0  0
   -7.3003   -6.4975   -3.0653 C   0  0  0  0  0  0  0  0  0  0  0  0
   -8.4689   -7.0801   -3.8848 C   0  0  0  0  0  0  0  0  0  0  0  0
   -9.2764   -6.3777   -4.4802 O   0  0  0  0  0  0  0  0  0  0  0  0
   -5.7760   -2.8886   -3.7726 C   0  0  2  0  0  0  0  0  0  0  0  0
   -4.4162   -2.9139   -3.0321 C   0  0  0  0  0  0  0  0  0  0  0  0
   -6.7521   -2.3686   -2.8167 O   0  0  0  0  0  0  0  0  0  0  0  0
   -5.4614   -0.4592   -4.6373 C   0  0  0  0  0  0  0  0  0  0  0  0
   -4.2725   -5.2725   -3.4231 O   0  0  0  0  0  0  0  0  0  0  0  0
   -5.7439   -1.9400   -5.0276 C   0  0  2  0  0  0  0  0  0  0  0  0
   -3.8730   -4.3079   -2.7717 C   0  0  0  0  0  0  0  0  0  0  0  0
   -4.9102    1.9545   -5.1546 C   0  0  0  0  0  0  0  0  0  0  0  0
   -5.3511    0.6018   -5.7726 C   0  0  2  0  0  0  0  0  0  0  0  0
   -4.7474   -2.4726   -6.0681 C   0  0  0  0  0  0  0  0  0  0  0  0
   -6.5046    3.2048   -6.6536 C   0  0  1  0  0  0  0  0  0  0  0  0
   -6.7347    1.9387   -7.4897 C   0  0  1  0  0  0  0  0  0  0  0  0
   -5.1132    3.1777   -6.0454 C   0  0  0  0  0  0  0  0  0  0  0  0
   -6.6528    0.7014   -6.5857 C   0  0  0  0  0  0  0  0  0  0  0  0
   -8.3571   -9.0489   -2.5052 O   0  0  0  0  0  0  0  0  0  0  0  0
   -8.5863   -8.6269   -3.8518 C   0  0  2  0  0  0  0  0  0  0  0  0
   -8.2286  -10.4564   -2.3478 C   0  0  1  0  0  0  0  0  0  0  0  0
   -7.0836  -11.0002   -3.2032 C   0  0  0  0  0  0  0  0  0  0  0  0
   -7.5955   -9.2245   -4.8894 C   0  0  1  0  0  0  0  0  0  0  0  0
   -7.3771  -10.7252   -4.6691 C   0  0  0  0  0  0  0  0  0  0  0  0
   -8.0926  -10.8249   -0.8623 C   0  0  0  0  0  0  0  0  0  0  0  0
   -6.8285  -10.3328   -0.1190 C   0  0  2  0  0  0  0  0  0  0  0  0
   -6.3602  -11.3550    0.7956 O   0  0  0  0  0  0  0  0  0  0  0  0
   -5.4999   -8.2868    0.6039 C   0  0  0  0  0  0  0  0  0  0  0  0
   -6.8356   -9.0045    0.6363 C   0  0  0  0  0  0  0  0  0  0  0  0
   -7.9077   -8.5433    1.3165 C   0  0  0  0  0  0  0  0  0  0  0  0
   -7.2832  -11.7421    1.8086 C   0  0  0  0  0  0  0  0  0  0  0  0
   -8.0402   -8.9867   -6.3393 C   0  0  0  0  0  0  0  0  0  0  0  0
   -2.7138   -4.4258   -1.7607 C   0  0  2  0  0  0  0  0  0  0  0  0
   -1.9619   -5.7417   -1.9818 C   0  0  0  0  0  0  0  0  0  0  0  0
   -3.1928   -4.3554   -0.3231 C   0  0  0  0  0  0  0  0  0  0  0  0
   -2.8104   -3.4721    0.6304 C   0  0  0  0  0  0  0  0  0  0  0  0
   -1.8149   -2.3769    0.3459 C   0  0  0  0  0  0  0  0  0  0  0  0
   -3.3038   -3.6151    2.0766 C   0  0  2  0  0  0  0  0  0  0  0  0
   -4.4394   -2.6450    2.5943 C   0  0  1  0  0  0  0  0  0  0  0  0
   -4.8557   -1.7575    1.5532 O   0  0  0  0  0  0  0  0  0  0  0  0
   -2.1605   -3.4918    2.9481 O   0  0  0  0  0  0  0  0  0  0  0  0
   -5.5706   -3.5005    3.2517 C   0  0  0  0  0  0  0  0  0  0  0  0
   -7.8715   -7.4282    2.2320 C   0  0  0  0  0  0  0  0  0  0  0  0
   -8.9410   -6.7335    2.6491 C   0  0  0  0  0  0  0  0  0  0  0  0
   -6.5191   -2.8044    4.2509 C   0  0  1  0  0  0  0  0  0  0  0  0
   -7.9044   -2.5335    3.6075 C   0  0  0  0  0  0  0  0  0  0  0  0
   -5.7986   -0.7655    1.9283 C   0  0  0  0  0  0  0  0  0  0  0  0
   -5.7186   -4.6971    2.9921 O   0  0  0  0  0  0  0  0  0  0  0  0
   -8.7314   -5.5411    3.4384 C   0  0  0  0  0  0  0  0  0  0  0  0
   -9.5770   -4.5053    3.4753 C   0  0  0  0  0  0  0  0  0  0  0  0
   -9.2566   -3.1450    4.0505 C   0  0  1  0  0  0  0  0  0  0  0  0
   -6.4526   -3.4615    5.6186 C   0  0  0  0  0  0  0  0  0  0  0  0
   -9.5737   -3.0342    5.5332 C   0  0  0  0  0  0  0  0  0  0  0  0
   -6.6385    4.3638   -7.4787 O   0  0  0  0  0  0  0  0  0  0  0  0
   -8.0258    2.0838   -8.1085 O   0  0  0  0  0  0  0  0  0  0  0  0
   -8.3734    1.0028   -8.9635 C   0  0  0  0  0  0  0  0  0  0  0  0
   -9.9130   -9.0240   -4.2147 O   0  0  0  0  0  0  0  0  0  0  0  0
  2  1  1  1  0  0  0
  2  7  1  0  0  0  0
  3  1  1  0  0  0  0
  4  2  1  0  0  0  0
  5  3  1  0  0  0  0
  6  5  1  0  0  0  0
  6  4  1  0  0  0  0
  7 15  1  0  0  0  0
  8  7  2  0  0  0  0
 10  4  1  0  0  0  0
 10  9  2  0  0  0  0
 11 10  1  0  0  0  0
 12 11  2  0  0  0  0
 13 15  1  6  0  0  0
 13 18  1  0  0  0  0
 14 13  1  0  0  0  0
 14 19  1  0  0  0  0
 18 22  1  1  0  0  0
 18 16  1  0  0  0  0
 19 17  2  0  0  0  0
 20 25  1  0  0  0  0
 21 16  1  1  0  0  0
 21 26  1  0  0  0  0
 21 20  1  0  0  0  0
 23 62  1  6  0  0  0
 24 23  1  0  0  0  0
 24 63  1  1  0  0  0
 25 23  1  0  0  0  0
 26 24  1  0  0  0  0
 28 11  1  0  0  0  0
 28 27  1  0  0  0  0
 28 65  1  6  0  0  0
 29 27  1  1  0  0  0
 29 33  1  0  0  0  0
 30 29  1  0  0  0  0
 31 28  1  0  0  0  0
 31 40  1  6  0  0  0
 32 30  1  0  0  0  0
 32 31  1  0  0  0  0
 34 33  1  0  0  0  0
 34 37  1  0  0  0  0
 34 35  1  1  0  0  0
 37 36  1  0  0  0  0
 38 37  2  0  0  0  0
 39 35  1  0  0  0  0
 41 19  1  0  0  0  0
 41 43  1  0  0  0  0
 41 42  1  1  0  0  0
 44 43  2  0  0  0  0
 44 46  1  0  0  0  0
 45 44  1  0  0  0  0
 46 49  1  1  0  0  0
 47 46  1  0  0  0  0
 47 50  1  0  0  0  0
 47 48  1  6  0  0  0
 51 38  1  0  0  0  0
 52 51  2  0  0  0  0
 53 50  1  0  0  0  0
 53 60  1  1  0  0  0
 54 53  1  0  0  0  0
 54 59  1  0  0  0  0
 55 48  1  0  0  0  0
 56 50  2  0  0  0  0
 57 52  1  0  0  0  0
 58 57  2  0  0  0  0
 59 58  1  0  0  0  0
 59 61  1  1  0  0  0
 64 63  1  0  0  0  0
M  END
