464
 OpenBabel10141417483D

 19 18  0  0  0  0  0  0  0  0999 V2000
   -7.8130  -10.6791    4.9608 S   0  0  0  0  0  0  0  0  0  0  0  0
   -6.5205  -11.6579    5.0126 O   0  0  0  0  0  0  0  0  0  0  0  0
   -8.6909  -11.2601    3.7484 O   0  0  0  0  0  0  0  0  0  0  0  0
   -7.4174   -9.3756    4.5490 O   0  0  0  0  0  0  0  0  0  0  0  0
   -8.6358  -10.9041    6.1561 O   0  0  0  0  0  0  0  0  0  0  0  0
   -1.2062   -6.2999    8.3344 C   0  0  0  0  0  0  0  0  0  0  0  0
   -1.1682   -6.5802    9.8557 C   0  0  0  0  0  0  0  0  0  0  0  0
   -2.5344   -6.4097    7.5385 C   0  0  0  0  0  0  0  0  0  0  0  0
   -1.9522   -5.6346   10.7900 C   0  0  0  0  0  0  0  0  0  0  0  0
   -3.2411   -7.7830    7.5441 C   0  0  0  0  0  0  0  0  0  0  0  0
   -3.4381   -5.6095   10.4621 C   0  0  0  0  0  0  0  0  0  0  0  0
   -4.5803   -7.7592    6.7834 C   0  0  0  0  0  0  0  0  0  0  0  0
   -4.3298   -4.7586   11.3509 C   0  0  0  0  0  0  0  0  0  0  0  0
   -5.3796   -9.0807    6.8024 C   0  0  0  0  0  0  0  0  0  0  0  0
   -5.7966   -4.7752   10.8735 C   0  0  0  0  0  0  0  0  0  0  0  0
   -4.7218  -10.2932    6.1130 C   0  0  0  0  0  0  0  0  0  0  0  0
   -6.5390   -6.1186   10.9429 C   0  0  0  0  0  0  0  0  0  0  0  0
   -5.5733  -11.5824    6.0726 C   0  0  0  0  0  0  0  0  0  0  0  0
   -6.6296   -6.7563   12.3222 C   0  0  0  0  0  0  0  0  0  0  0  0
  1  2  1  0  0  0  0
  1  3  1  0  0  0  0
  1  4  2  0  0  0  0
  1  5  2  0  0  0  0
  2 18  1  0  0  0  0
  6  7  1  0  0  0  0
  6  8  1  0  0  0  0
  7  9  1  0  0  0  0
  8 10  1  0  0  0  0
  9 11  1  0  0  0  0
 10 12  1  0  0  0  0
 11 13  1  0  0  0  0
 12 14  1  0  0  0  0
 13 15  1  0  0  0  0
 14 16  1  0  0  0  0
 15 17  1  0  0  0  0
 16 18  1  0  0  0  0
 17 19  1  0  0  0  0
M  END
