
 OpenBabel10141417483D

 18 16  0  0  0  0  0  0  0  0999 V2000
    2.9639    5.7344   -2.6995 Na  0  3  0  0  0 15  0  0  0  0  0  0
    4.5861    1.6737    2.3551 C   0  0  0  0  0  0  0  0  0  0  0  0
    5.4254    0.9637    1.2985 C   0  0  0  0  0  0  0  0  0  0  0  0
    6.8434    0.6552    1.7829 C   0  0  0  0  0  0  0  0  0  0  0  0
    7.7038   -0.0726    0.7397 C   0  0  0  0  0  0  0  0  0  0  0  0
    7.9627    0.6649   -0.5900 C   0  0  0  0  0  0  0  0  0  0  0  0
    8.6947    2.0155   -0.4662 C   0  0  0  0  0  0  0  0  0  0  0  0
    8.9200    2.7110   -1.8360 C   0  0  0  0  0  0  0  0  0  0  0  0
    9.6656    4.0544   -1.7025 C   0  0  0  0  0  0  0  0  0  0  0  0
    9.9452    4.8274   -3.0108 C   0  0  0  0  0  0  0  0  0  0  0  0
    8.7442    5.2920   -3.8558 C   0  0  0  0  0  0  0  0  0  0  0  0
    7.7978    6.2571   -3.1334 C   0  0  0  0  0  0  0  0  0  0  0  0
    6.6244    6.7142   -4.0071 C   0  0  0  0  0  0  0  0  0  0  0  0
    5.7820    7.5617   -3.2333 O   0  0  0  0  0  0  0  0  0  0  0  0
    4.4471    8.1675   -3.9456 S   0  0  0  0  0  0  0  0  0  0  0  0
    4.9442    8.9033   -5.1093 O   0  5  0  0  0  0  0  0  0  0  0  0
    3.6832    6.9451   -4.2304 O   0  0  0  0  0  0  0  0  0  0  0  0
    3.8189    8.9384   -2.8959 O   0  0  0  0  0  0  0  0  0  0  0  0
  2  3  1  0  0  0  0
  3  4  1  0  0  0  0
  4  5  1  0  0  0  0
  5  6  1  0  0  0  0
  6  7  1  0  0  0  0
  7  8  1  0  0  0  0
  8  9  1  0  0  0  0
  9 10  1  0  0  0  0
 10 11  1  0  0  0  0
 11 12  1  0  0  0  0
 12 13  1  0  0  0  0
 13 14  1  0  0  0  0
 14 15  1  0  0  0  0
 15 16  1  0  0  0  0
 15 17  2  0  0  0  0
 15 18  2  0  0  0  0
M  CHG  2   1   1  16  -1
M  END
