
 OpenBabel10141418063D

 43 34  0  0  1  0  0  0  0  0999 V2000
    2.9028   -0.7657   -0.6416 Na  0  3  0  0  0 15  0  0  0  0  0  0
   -1.8009    2.9318    3.2912 Na  0  3  0  0  0 15  0  0  0  0  0  0
    1.1054    3.9384    3.4870 Na  0  3  0  0  0 15  0  0  0  0  0  0
   -2.6250   -2.1824    2.2287 Sb  0  0  0  0  0  0  0  0  0  0  0  0
   -1.5540   -3.6605    2.9503 O   0  0  0  0  0  0  0  0  0  0  0  0
   -3.4232   -1.8010    4.2178 O   0  0  0  0  0  0  0  0  0  0  0  0
   -0.9303   -3.1141    4.1073 C   0  0  2  0  0  0  0  0  0  0  0  0
   -2.6416   -0.9029    4.9968 C   0  0  1  0  0  0  0  0  0  0  0  0
   -1.2408   -1.5258    4.3514 C   0  0  2  0  0  0  0  0  0  0  0  0
   -1.1437   -1.0963    3.0327 O   0  0  0  0  0  0  0  0  0  0  0  0
    0.5418   -3.3175    3.8243 C   0  0  0  0  0  0  0  0  0  0  0  0
    1.1990   -4.4075    4.1819 O   0  5  0  0  0  0  0  0  0  0  0  0
    1.2053   -2.3335    3.3958 O   0  0  0  0  0  0  0  0  0  0  0  0
   -3.2327    0.8517    5.3272 C   0  0  2  0  0  0  0  0  0  0  0  0
   -4.6303    1.1057    5.5631 O   0  0  0  0  0  0  0  0  0  0  0  0
   -2.5419    2.0484    6.1679 C   0  0  0  0  0  0  0  0  0  0  0  0
   -2.3211    1.7177    7.5533 O   0  0  0  0  0  0  0  0  0  0  0  0
   -1.9867   -2.2670    0.0711 O   0  0  0  0  0  0  0  0  0  0  0  0
   -1.9566   -3.6219   -1.7180 Sb  0  0  0  0  0  0  0  0  0  0  0  0
   -3.5884   -2.8941   -2.1000 O   0  0  0  0  0  0  0  0  0  0  0  0
   -0.7838   -4.8802   -0.8429 O   0  0  0  0  0  0  0  0  0  0  0  0
   -4.1474   -3.7597   -1.1338 C   0  0  2  0  0  0  0  0  0  0  0  0
   -1.8535   -5.5422   -0.1444 C   0  0  1  0  0  0  0  0  0  0  0  0
   -3.3108   -5.2062   -0.9242 C   0  0  2  0  0  0  0  0  0  0  0  0
   -2.9187   -5.3361   -2.1919 O   0  0  0  0  0  0  0  0  0  0  0  0
   -5.5667   -3.8834   -1.5191 C   0  0  0  0  0  0  0  0  0  0  0  0
   -6.4256   -4.6357   -0.8249 O   0  5  0  0  0  0  0  0  0  0  0  0
   -5.9587   -3.2872   -2.5197 O   0  0  0  0  0  0  0  0  0  0  0  0
   -1.3206   -7.1083    0.2370 C   0  0  2  0  0  0  0  0  0  0  0  0
   -1.5700   -7.8650   -0.9254 O   0  0  0  0  0  0  0  0  0  0  0  0
   -0.1693   -8.0357    1.0579 C   0  0  0  0  0  0  0  0  0  0  0  0
   -0.0347   -9.4641    1.1537 O   0  0  0  0  0  0  0  0  0  0  0  0
   -4.0928   -3.6544    2.1560 O   0  0  0  0  0  0  0  0  0  0  0  0
   -1.0860   -3.0873   -3.4866 O   0  5  0  0  0  0  0  0  0  0  0  0
    1.1875   -3.3685   -3.3517 O   0  0  0  0  0  0  0  0  0  0  0  0
    1.1248    0.4819    0.3917 O   0  0  0  0  0  0  0  0  0  0  0  0
    3.6562   -1.3843   -2.8789 O   0  0  0  0  0  0  0  0  0  0  0  0
    0.0426    2.6022    1.9399 O   0  0  0  0  0  0  0  0  0  0  0  0
    2.9243   -3.3958   -0.4500 O   0  0  0  0  0  0  0  0  0  0  0  0
    5.1424  -26.1353    0.5457 O   0  0  0  0  0  0  0  0  0  0  0  0
    2.7054   -0.8250    1.5452 O   0  0  0  0  0  0  0  0  0  0  0  0
    1.5016   -0.0640   -3.2548 O   0  0  0  0  0  0  0  0  0  0  0  0
    0.8720    0.8159    3.4424 O   0  0  0  0  0  0  0  0  0  0  0  0
  4 10  1  0  0  0  0
  4 18  1  0  0  0  0
  4 33  1  0  0  0  0
  5  4  1  0  0  0  0
  6  4  1  0  0  0  0
  7  5  1  0  0  0  0
  7 11  1  6  0  0  0
  8  6  1  6  0  0  0
  8 14  1  0  0  0  0
  9  7  1  0  0  0  0
  9  8  1  0  0  0  0
  9 10  1  6  0  0  0
 11 12  1  0  0  0  0
 11 13  2  0  0  0  0
 14 16  1  6  0  0  0
 14 15  1  0  0  0  0
 16 17  1  0  0  0  0
 19 25  1  0  0  0  0
 19 18  1  0  0  0  0
 19 34  1  0  0  0  0
 20 19  1  0  0  0  0
 21 19  1  0  0  0  0
 22 20  1  0  0  0  0
 22 26  1  6  0  0  0
 23 21  1  6  0  0  0
 23 29  1  0  0  0  0
 24 22  1  0  0  0  0
 24 23  1  0  0  0  0
 24 25  1  6  0  0  0
 26 27  1  0  0  0  0
 26 28  2  0  0  0  0
 29 31  1  1  0  0  0
 29 30  1  0  0  0  0
 31 32  1  0  0  0  0
M  CHG  6   1   1   2   1   3   1  12  -1  27  -1  34  -1
M  END
