
 OpenBabel10141417583D

 36 38  0  0  0  0  0  0  0  0999 V2000
    1.5919   -1.0298   -1.4746 C   0  0  0  0  0  0  0  0  0  0  0  0
    0.3549   -1.1542   -0.5916 C   0  0  0  0  0  0  0  0  0  0  0  0
    0.6174   -0.6470    0.7298 O   0  0  0  0  0  0  0  0  0  0  0  0
    1.2240   -1.4549    1.6472 C   0  0  0  0  0  0  0  0  0  0  0  0
    1.3207   -0.7647    3.0133 C   0  0  1  0  0  0  0  0  0  0  0  0
    2.5319   -1.1492    3.7417 N   0  0  0  0  0  0  0  0  0  0  0  0
    2.9619   -2.7803    4.3101 P   0  0  1  0  0  0  0  0  0  0  0  0
    4.4350   -2.4120    4.0957 O   0  0  0  0  0  0  0  0  0  0  0  0
    2.4493   -2.3491    5.8260 O   0  0  0  0  0  0  0  0  0  0  0  0
    3.3798   -4.3656    4.8626 O   0  0  0  0  0  0  0  0  0  0  0  0
    1.5891   -2.6108    1.4389 O   0  0  0  0  0  0  0  0  0  0  0  0
   -0.7999   -0.3265   -1.1509 C   0  0  0  0  0  0  0  0  0  0  0  0
    1.3162    0.7671    2.8095 C   0  0  0  0  0  0  0  0  0  0  0  0
    2.4484   -5.0283    5.7429 C   0  0  0  0  0  0  0  0  0  0  0  0
    0.5102   -3.9257    4.7272 O   0  0  0  0  0  0  0  0  0  0  0  0
    1.0697   -5.2053    5.1044 C   0  0  3  0  0  0  0  0  0  0  0  0
    0.0035   -5.9439    5.9212 C   0  0  2  0  0  0  0  0  0  0  0  0
   -0.8970   -4.8290    6.4403 C   0  0  1  0  0  0  0  0  0  0  0  0
   -0.8018   -3.7755    5.3217 C   0  0  2  0  0  0  0  0  0  0  0  0
   -2.2847   -5.3117    6.8325 C   0  0  0  0  0  0  0  0  0  0  0  0
   -0.3235   -4.2938    7.5653 F   0  0  0  0  0  0  0  0  0  0  0  0
    0.5350   -6.7864    6.9327 O   0  0  0  0  0  0  0  0  0  0  0  0
   -3.9200   -3.2999    3.4176 N   0  0  0  0  0  0  0  0  0  0  0  0
   -3.0059   -3.1872    4.4386 C   0  0  0  0  0  0  0  0  0  0  0  0
   -1.8080   -3.8567    4.2520 N   0  0  0  0  0  0  0  0  0  0  0  0
   -1.5706   -4.5983    3.1052 C   0  0  0  0  0  0  0  0  0  0  0  0
   -2.4934   -4.7592    2.1609 C   0  0  0  0  0  0  0  0  0  0  0  0
   -3.8045   -4.1245    2.3364 C   0  0  0  0  0  0  0  0  0  0  0  0
   -3.2893   -2.5429    5.4541 O   0  0  0  0  0  0  0  0  0  0  0  0
   -4.7232   -4.3524    1.5593 O   0  0  0  0  0  0  0  0  0  0  0  0
    3.9969   -0.2316    9.0743 C   0  0  0  0  0  0  0  0  0  0  0  0
    4.3514    0.1725    7.7858 C   0  0  0  0  0  0  0  0  0  0  0  0
    3.8451   -0.4956    6.6560 C   0  0  0  0  0  0  0  0  0  0  0  0
    3.0086   -1.5930    6.8197 C   0  0  0  0  0  0  0  0  0  0  0  0
    2.6105   -1.9512    8.1161 C   0  0  0  0  0  0  0  0  0  0  0  0
    3.1014   -1.2807    9.2390 C   0  0  0  0  0  0  0  0  0  0  0  0
  1  2  1  0  0  0  0
  2  3  1  0  0  0  0
  2 12  1  0  0  0  0
  3  4  1  0  0  0  0
  4 11  2  0  0  0  0
  5  4  1  6  0  0  0
  5  6  1  0  0  0  0
  5 13  1  0  0  0  0
  7  6  1  6  0  0  0
  7  8  2  0  0  0  0
  7  9  1  0  0  0  0
  7 10  1  0  0  0  0
  9 34  1  0  0  0  0
 10 14  1  0  0  0  0
 14 16  1  0  0  0  0
 15 16  1  0  0  0  0
 15 19  1  0  0  0  0
 16 17  1  0  0  0  0
 17 18  1  0  0  0  0
 17 22  1  1  0  0  0
 18 19  1  0  0  0  0
 18 20  1  1  0  0  0
 18 21  1  0  0  0  0
 19 25  1  6  0  0  0
 23 24  1  0  0  0  0
 23 28  1  0  0  0  0
 24 25  1  0  0  0  0
 24 29  2  0  0  0  0
 25 26  1  0  0  0  0
 26 27  2  0  0  0  0
 27 28  1  0  0  0  0
 28 30  2  0  0  0  0
 31 32  1  0  0  0  0
 31 36  2  0  0  0  0
 32 33  2  0  0  0  0
 33 34  1  0  0  0  0
 34 35  2  0  0  0  0
 35 36  1  0  0  0  0
M  END
