398
 OpenBabel10141417493D

 32 34  0  0  0  0  0  0  0  0999 V2000
   12.0637    7.0897   -0.8741 Cl  0  0  0  0  0  0  0  0  0  0  0  0
   14.5558    3.4189   -0.3092 F   0  0  0  0  0  0  0  0  0  0  0  0
   14.3894    5.1489   -1.6013 F   0  0  0  0  0  0  0  0  0  0  0  0
   14.2356    5.3758    0.5619 F   0  0  0  0  0  0  0  0  0  0  0  0
   11.1822   -6.0636    0.0882 O   0  0  0  0  0  0  0  0  0  0  0  0
   11.7289    0.2945   -0.1821 O   0  0  0  0  0  0  0  0  0  0  0  0
    6.6696   -6.2600   -2.3170 O   0  0  0  0  0  0  0  0  0  0  0  0
    9.8460    1.5900   -0.4479 N   0  0  0  0  0  0  0  0  0  0  0  0
    9.6444   -0.6796   -0.1520 N   0  0  0  0  0  0  0  0  0  0  0  0
    8.2421   -8.9603   -0.5881 N   0  0  0  0  0  0  0  0  0  0  0  0
    5.9189   -8.3767   -1.8220 N   0  0  0  0  0  0  0  0  0  0  0  0
   10.4439    2.8635   -0.5503 C   0  0  0  0  0  0  0  0  0  0  0  0
   12.3721    4.3888   -0.5668 C   0  0  0  0  0  0  0  0  0  0  0  0
   11.8244    3.0937   -0.4671 C   0  0  0  0  0  0  0  0  0  0  0  0
   10.0637   -2.0303   -0.0693 C   0  0  0  0  0  0  0  0  0  0  0  0
    9.5979    3.9558   -0.7391 C   0  0  0  0  0  0  0  0  0  0  0  0
   10.8054   -4.7355    0.1069 C   0  0  0  0  0  0  0  0  0  0  0  0
   11.5012    5.4638   -0.7491 C   0  0  0  0  0  0  0  0  0  0  0  0
   11.3342   -2.4602   -0.4734 C   0  0  0  0  0  0  0  0  0  0  0  0
    9.1678   -2.9705    0.4414 C   0  0  0  0  0  0  0  0  0  0  0  0
   10.1230    5.2470   -0.8364 C   0  0  0  0  0  0  0  0  0  0  0  0
   11.7078   -3.8039   -0.3907 C   0  0  0  0  0  0  0  0  0  0  0  0
    9.5652   -4.3008    0.5905 C   0  0  0  0  0  0  0  0  0  0  0  0
   10.5113    0.3891   -0.2562 C   0  0  0  0  0  0  0  0  0  0  0  0
   13.8628    4.5819   -0.4802 C   0  0  0  0  0  0  0  0  0  0  0  0
   10.2157   -7.0061   -0.2083 C   0  0  0  0  0  0  0  0  0  0  0  0
    9.1159   -6.7444   -1.0208 C   0  0  0  0  0  0  0  0  0  0  0  0
    8.1408   -7.7163   -1.1352 C   0  0  0  0  0  0  0  0  0  0  0  0
   10.3672   -8.2735    0.3450 C   0  0  0  0  0  0  0  0  0  0  0  0
    9.3721   -9.2119    0.1125 C   0  0  0  0  0  0  0  0  0  0  0  0
    6.8569   -7.3718   -1.8256 C   0  0  0  0  0  0  0  0  0  0  0  0
    4.6112   -8.2102   -2.3928 C   0  0  0  0  0  0  0  0  0  0  0  0
  1 18  1  0  0  0  0
  2 25  1  0  0  0  0
  3 25  1  0  0  0  0
  4 25  1  0  0  0  0
  5 17  1  0  0  0  0
  5 26  1  0  0  0  0
  6 24  2  0  0  0  0
  7 31  2  0  0  0  0
  8 12  1  0  0  0  0
  8 24  1  0  0  0  0
  9 15  1  0  0  0  0
  9 24  1  0  0  0  0
 10 28  2  0  0  0  0
 10 30  1  0  0  0  0
 11 31  1  0  0  0  0
 11 32  1  0  0  0  0
 12 14  2  0  0  0  0
 12 16  1  0  0  0  0
 13 14  1  0  0  0  0
 13 18  2  0  0  0  0
 13 25  1  0  0  0  0
 15 19  2  0  0  0  0
 15 20  1  0  0  0  0
 16 21  2  0  0  0  0
 17 22  2  0  0  0  0
 17 23  1  0  0  0  0
 18 21  1  0  0  0  0
 19 22  1  0  0  0  0
 20 23  2  0  0  0  0
 26 27  2  0  0  0  0
 26 29  1  0  0  0  0
 27 28  1  0  0  0  0
 28 31  1  0  0  0  0
 29 30  2  0  0  0  0
M  END
