489
 OpenBabel10141417543D

 18 18  0  0  1  0  0  0  0  0999 V2000
    2.5475    2.4011   -2.1275 S   0  0  0  0  0  0  0  0  0  0  0  0
   -3.7532   -0.9079   -1.2387 O   0  0  0  0  0  0  0  0  0  0  0  0
    1.4092    3.2843   -2.2969 O   0  0  0  0  0  0  0  0  0  0  0  0
    3.8451    2.7508   -2.6671 O   0  0  0  0  0  0  0  0  0  0  0  0
   -5.7232   -0.3003   -3.3274 N   0  0  0  0  0  0  0  0  0  0  0  0
    2.1892    0.8745   -2.7631 N   0  0  0  0  0  0  0  0  0  0  0  0
   -3.3416   -0.7622   -2.6056 C   0  0  3  0  0  0  0  0  0  0  0  0
   -4.3327    0.2017   -3.3172 C   0  0  0  0  0  0  0  0  0  0  0  0
   -6.6547    0.6351   -3.9879 C   0  0  0  0  0  0  0  0  0  0  0  0
   -1.8844   -0.3148   -2.6510 C   0  0  0  0  0  0  0  0  0  0  0  0
   -1.3598    0.3867   -3.7509 C   0  0  0  0  0  0  0  0  0  0  0  0
   -0.9980   -0.6565   -1.6139 C   0  0  0  0  0  0  0  0  0  0  0  0
   -6.3264    0.8792   -5.4637 C   0  0  0  0  0  0  0  0  0  0  0  0
   -8.0682    0.0557   -3.8804 C   0  0  0  0  0  0  0  0  0  0  0  0
    0.8288    0.4531   -2.7397 C   0  0  0  0  0  0  0  0  0  0  0  0
   -0.0217    0.7872   -3.7866 C   0  0  0  0  0  0  0  0  0  0  0  0
    0.3452   -0.2668   -1.6516 C   0  0  0  0  0  0  0  0  0  0  0  0
    2.7568    2.0331   -0.3994 C   0  0  0  0  0  0  0  0  0  0  0  0
  1  3  2  0  0  0  0
  1  4  2  0  0  0  0
  1  6  1  0  0  0  0
  1 18  1  0  0  0  0
  2  7  1  0  0  0  0
  5  8  1  0  0  0  0
  5  9  1  0  0  0  0
  6 15  1  0  0  0  0
  7  8  1  0  0  0  0
  7 10  1  0  0  0  0
  9 13  1  0  0  0  0
  9 14  1  0  0  0  0
 10 11  2  0  0  0  0
 10 12  1  0  0  0  0
 11 16  1  0  0  0  0
 12 17  2  0  0  0  0
 15 16  2  0  0  0  0
 15 17  1  0  0  0  0
M  END
