
 OpenBabel10141417533D

 21 20  0  0  0  0  0  0  0  0999 V2000
   -0.5868   -3.1306   -1.1555 O   0  0  0  0  0  0  0  0  0  0  0  0
    0.6904   -3.5526   -1.2213 C   0  0  0  0  0  0  0  0  0  0  0  0
    1.7187   -2.5631   -0.6650 C   0  0  1  0  0  0  0  0  0  0  0  0
    1.3176   -1.8909    0.6640 C   0  0  0  0  0  0  0  0  0  0  0  0
    1.1930   -2.8012    1.8860 C   0  0  0  0  0  0  0  0  0  0  0  0
    0.0976   -3.8164    1.7984 C   0  0  0  0  0  0  0  0  0  0  0  0
   -1.1248   -3.2829    1.6577 O   0  0  0  0  0  0  0  0  0  0  0  0
    0.2411   -5.0307    1.8445 O   0  0  0  0  0  0  0  0  0  0  0  0
    3.0374   -3.2135   -0.5892 N   0  0  0  0  0  0  0  0  0  0  0  0
    4.1908   -2.5426   -0.2325 C   0  0  0  0  0  0  0  0  0  0  0  0
    5.4465   -3.3633   -0.3646 C   0  0  0  0  0  0  0  0  0  0  0  0
    4.2192   -1.3584    0.1048 O   0  0  0  0  0  0  0  0  0  0  0  0
    6.5450   -3.0115    0.6397 C   0  0  1  0  0  0  0  0  0  0  0  0
    6.0654   -3.2689    2.0891 C   0  0  0  0  0  0  0  0  0  0  0  0
    6.8010   -4.2256    2.7267 O   0  0  0  0  0  0  0  0  0  0  0  0
    5.1288   -2.7587    2.6674 O   0  0  0  0  0  0  0  0  0  0  0  0
    7.7538   -3.8261    0.3807 N   0  0  0  0  0  0  0  0  0  0  0  0
    8.4806   -3.7329   -0.7812 C   0  0  0  0  0  0  0  0  0  0  0  0
    9.6570   -4.6691   -0.8557 C   0  0  0  0  0  0  0  0  0  0  0  0
    8.1787   -2.9986   -1.7098 O   0  0  0  0  0  0  0  0  0  0  0  0
    0.9466   -4.6292   -1.7647 O   0  0  0  0  0  0  0  0  0  0  0  0
  1  2  1  0  0  0  0
  2 21  2  0  0  0  0
  3  2  1  1  0  0  0
  3  4  1  0  0  0  0
  3  9  1  0  0  0  0
  4  5  1  0  0  0  0
  5  6  1  0  0  0  0
  6  7  1  0  0  0  0
  6  8  2  0  0  0  0
  9 10  1  0  0  0  0
 10 11  1  0  0  0  0
 10 12  2  0  0  0  0
 13 11  1  6  0  0  0
 13 14  1  0  0  0  0
 13 17  1  0  0  0  0
 14 15  1  0  0  0  0
 14 16  2  0  0  0  0
 17 18  1  0  0  0  0
 18 19  1  0  0  0  0
 18 20  2  0  0  0  0
M  END
