1208
 OpenBabel10141417533D

 28 31  0  0  1  0  0  0  0  0999 V2000
    1.1297   -0.0148    0.3355 F   0  0  0  0  0  0  0  0  0  0  0  0
    5.2046   -2.3579   -0.2227 F   0  0  0  0  0  0  0  0  0  0  0  0
    6.5419    2.4589    0.3474 O   0  0  0  0  0  0  0  0  0  0  0  0
    6.4561    5.0883   -0.2991 O   0  0  0  0  0  0  0  0  0  0  0  0
    4.6456    6.1449    0.4556 O   0  0  0  0  0  0  0  0  0  0  0  0
    2.4814    2.5135    0.2490 N   0  0  0  0  0  0  0  0  0  0  0  0
    2.3407   -2.4315    0.0953 N   0  0  0  0  0  0  0  0  0  0  0  0
    1.0270   -5.0371    0.4637 N   0  0  0  0  0  0  0  0  0  0  0  0
    6.6288   -0.0619   -0.3645 N   0  0  0  0  0  0  0  0  0  0  0  0
    1.0129    2.6302    0.0545 C   0  0  0  0  0  0  0  0  0  0  0  0
    0.1662    3.7537    0.6147 C   0  0  0  0  0  0  0  0  0  0  0  0
    0.0762    2.3880    1.2128 C   0  0  0  0  0  0  0  0  0  0  0  0
    3.1471    1.2433    0.1905 C   0  0  0  0  0  0  0  0  0  0  0  0
    1.7400   -4.6897   -0.7904 C   0  0  2  0  0  0  0  0  0  0  0  0
    0.6473   -3.8527    1.2721 C   0  0  1  0  0  0  0  0  0  0  0  0
    2.8483   -3.6081   -0.6346 C   0  0  0  0  0  0  0  0  0  0  0  0
    1.7605   -2.7754    1.4127 C   0  0  0  0  0  0  0  0  0  0  0  0
    3.1178   -1.2513    0.0970 C   0  0  0  0  0  0  0  0  0  0  0  0
    3.2337    3.6750    0.2080 C   0  0  0  0  0  0  0  0  0  0  0  0
    4.5561    1.2061    0.0956 C   0  0  0  0  0  0  0  0  0  0  0  0
    2.4690    0.0026    0.2164 C   0  0  0  0  0  0  0  0  0  0  0  0
    5.2537   -0.0171   -0.0280 C   0  0  0  0  0  0  0  0  0  0  0  0
    4.5723    3.7595    0.1788 C   0  0  0  0  0  0  0  0  0  0  0  0
    4.5125   -1.2145   -0.0634 C   0  0  0  0  0  0  0  0  0  0  0  0
    5.3236    2.4842    0.1931 C   0  0  0  0  0  0  0  0  0  0  0  0
    0.7667   -4.3613   -1.9254 C   0  0  0  0  0  0  0  0  0  0  0  0
   -0.6796   -3.2411    0.8136 C   0  0  0  0  0  0  0  0  0  0  0  0
    5.1949    5.0906    0.1525 C   0  0  0  0  0  0  0  0  0  0  0  0
  1 21  1  0  0  0  0
  2 24  1  0  0  0  0
  3 25  2  0  0  0  0
  4 28  1  0  0  0  0
  5 28  2  0  0  0  0
  6 10  1  0  0  0  0
  6 13  1  0  0  0  0
  6 19  1  0  0  0  0
  7 16  1  0  0  0  0
  7 17  1  0  0  0  0
  7 18  1  0  0  0  0
  8 14  1  0  0  0  0
  8 15  1  0  0  0  0
  9 22  1  0  0  0  0
 10 11  1  0  0  0  0
 10 12  1  0  0  0  0
 11 12  1  0  0  0  0
 13 20  1  0  0  0  0
 13 21  2  0  0  0  0
 14 16  1  0  0  0  0
 14 26  1  6  0  0  0
 15 17  1  0  0  0  0
 15 27  1  6  0  0  0
 18 21  1  0  0  0  0
 18 24  2  0  0  0  0
 19 23  2  0  0  0  0
 20 22  2  0  0  0  0
 20 25  1  0  0  0  0
 22 24  1  0  0  0  0
 23 25  1  0  0  0  0
 23 28  1  0  0  0  0
M  END
