
 OpenBabel10141417513D

 52 57  0  0  0  0  0  0  0  0999 V2000
    4.0077    3.1082   -9.0913 C   0  0  2  0  0  0  0  0  0  0  0  0
    3.1473    2.3833   -8.0060 C   0  0  2  0  0  0  0  0  0  0  0  0
    2.3382    1.3137   -8.5098 O   0  0  0  0  0  0  0  0  0  0  0  0
    1.5483    1.5608   -9.6802 C   0  0  2  0  0  0  0  0  0  0  0  0
    2.3969    2.1560  -10.7990 C   0  0  0  0  0  0  0  0  0  0  0  0
    3.1363    3.3887  -10.3243 C   0  0  0  0  0  0  0  0  0  0  0  0
    5.3220    2.4574   -9.3514 N   0  0  0  0  0  0  0  0  0  0  0  0
    5.3132    1.0742   -9.8056 C   0  0  0  0  0  0  0  0  0  0  0  0
    6.2117    3.2706  -10.1797 C   0  0  0  0  0  0  0  0  0  0  0  0
    2.2886    3.3592   -7.1975 C   0  0  0  0  0  0  0  0  0  0  0  0
    0.3363    2.2756   -9.3940 O   0  0  0  0  0  0  0  0  0  0  0  0
   -0.5522    2.5511  -10.4949 C   0  0  2  0  0  0  0  0  0  0  0  0
   -1.8221    3.3821  -10.0612 C   0  0  2  0  0  0  0  0  0  0  0  0
   -0.8271    1.3654  -11.4710 C   0  0  0  0  0  0  0  0  0  0  0  0
   -2.7695    2.6530   -9.0868 C   0  0  0  0  0  0  0  0  0  0  0  0
   -1.0925   -0.0212  -10.8766 C   0  0  0  0  0  0  0  0  0  0  0  0
   -2.5677   -0.3374  -10.6942 C   0  0  0  0  0  0  0  0  0  0  0  0
   -2.8262   -1.1549   -9.4148 C   0  0  1  0  0  0  0  0  0  0  0  0
   -4.2212   -0.9725   -9.1139 O   0  0  0  0  0  0  0  0  0  0  0  0
   -4.4749   -0.1632   -8.0540 C   0  0  0  0  0  0  0  0  0  0  0  0
   -3.9645   -0.2857   -6.9112 O   0  0  0  0  0  0  0  0  0  0  0  0
   -5.4989    0.8641   -8.4534 C   0  0  0  0  0  0  0  0  0  0  0  0
   -2.5349    3.8845  -11.3285 C   0  0  0  0  0  0  0  0  0  0  0  0
   -2.3754    1.6822   -8.4422 O   0  0  0  0  0  0  0  0  0  0  0  0
   -5.9833    4.6201   -8.4374 C   0  0  1  0  0  0  0  0  0  0  0  0
   -2.4639   -2.6399   -9.5323 C   0  0  0  0  0  0  0  0  0  0  0  0
   -3.2694   -3.4165  -10.5624 C   0  0  0  0  0  0  0  0  0  0  0  0
   -7.1435    5.4565   -6.2615 C   0  0  2  0  0  0  0  0  0  0  0  0
   -5.9183    5.5187   -7.1935 C   0  0  1  0  0  0  0  0  0  0  0  0
   -6.4747    3.1871   -8.1747 C   0  0  1  0  0  0  0  0  0  0  0  0
   -7.5039    3.0973   -7.0797 C   0  0  0  0  0  0  0  0  0  0  0  0
   -7.8286    4.1135   -6.2656 C   0  0  0  0  0  0  0  0  0  0  0  0
   -5.0585    5.9622   -5.0118 C   0  0  1  0  0  0  0  0  0  0  0  0
   -4.7666    5.1748   -6.2622 C   0  0  0  0  0  0  0  0  0  0  0  0
   -6.5844    5.8042   -4.8518 C   0  0  0  0  0  0  0  0  0  0  0  0
   -4.3347    5.4502   -3.8976 O   0  0  0  0  0  0  0  0  0  0  0  0
   -1.1499    5.0866   -2.0885 C   0  0  2  0  0  0  0  0  0  0  0  0
   -2.3967    4.5845   -2.8153 C   0  0  0  0  0  0  0  0  0  0  0  0
   -2.8707    5.4108   -4.0297 C   0  0  2  0  0  0  0  0  0  0  0  0
   -2.2851    6.8504   -4.2524 C   0  0  1  0  0  0  0  0  0  0  0  0
   -1.0735    7.2708   -3.3662 C   0  0  1  0  0  0  0  0  0  0  0  0
   -1.2291    6.6289   -1.9609 C   0  0  1  0  0  0  0  0  0  0  0  0
   -2.0701    7.0000   -5.6777 O   0  0  0  0  0  0  0  0  0  0  0  0
   -1.8955    8.3219   -6.1643 C   0  0  0  0  0  0  0  0  0  0  0  0
    0.2552    6.9176   -3.7554 O   0  0  0  0  0  0  0  0  0  0  0  0
    0.8104    7.3746   -4.9585 C   0  0  0  0  0  0  0  0  0  0  0  0
   -2.4730    7.0525   -1.3720 O   0  0  0  0  0  0  0  0  0  0  0  0
   -2.6927    6.5629   -0.0506 C   0  0  0  0  0  0  0  0  0  0  0  0
    0.1355    4.5256   -2.7142 C   0  0  0  0  0  0  0  0  0  0  0  0
   -5.1897    2.3081   -8.0120 C   0  0  1  0  0  0  0  0  0  0  0  0
   -4.1726    3.1237   -8.8194 C   0  0  0  0  0  0  0  0  0  0  0  0
   -4.6234    4.3737   -9.0328 C   0  0  0  0  0  0  0  0  0  0  0  0
  1  2  1  0  0  0  0
  1  6  1  0  0  0  0
  1  7  1  6  0  0  0
  2  3  1  0  0  0  0
  2 10  1  6  0  0  0
  3  4  1  0  0  0  0
  4  5  1  0  0  0  0
  4 11  1  1  0  0  0
  5  6  1  0  0  0  0
  7  8  1  0  0  0  0
  7  9  1  0  0  0  0
 12 13  1  0  0  0  0
 12 14  1  0  0  0  0
 12 11  1  1  0  0  0
 13 15  1  0  0  0  0
 13 23  1  6  0  0  0
 14 16  1  0  0  0  0
 15 51  1  0  0  0  0
 15 24  2  0  0  0  0
 16 17  1  0  0  0  0
 17 18  1  0  0  0  0
 18 19  1  0  0  0  0
 18 26  1  6  0  0  0
 19 20  1  0  0  0  0
 20 22  1  0  0  0  0
 20 21  2  0  0  0  0
 25 52  1  6  0  0  0
 25 30  1  0  0  0  0
 26 27  1  0  0  0  0
 28 32  1  6  0  0  0
 28 35  1  0  0  0  0
 29 25  1  0  0  0  0
 29 28  1  0  0  0  0
 29 34  1  1  0  0  0
 30 31  1  6  0  0  0
 30 50  1  0  0  0  0
 31 32  2  0  0  0  0
 33 34  1  0  0  0  0
 33 35  1  0  0  0  0
 33 36  1  1  0  0  0
 37 38  1  0  0  0  0
 37 42  1  0  0  0  0
 37 49  1  6  0  0  0
 38 39  1  0  0  0  0
 39 40  1  0  0  0  0
 39 36  1  1  0  0  0
 40 41  1  0  0  0  0
 40 43  1  6  0  0  0
 41 42  1  0  0  0  0
 41 45  1  6  0  0  0
 42 47  1  6  0  0  0
 43 44  1  0  0  0  0
 45 46  1  0  0  0  0
 47 48  1  0  0  0  0
 50 51  1  1  0  0  0
 50 22  1  0  0  0  0
 51 52  2  0  0  0  0
M  END
