1348
 OpenBabel10141417543D

 31 33  0  0  1  0  0  0  0  0999 V2000
    3.2851    5.0095   -5.9627 S   0  0  0  0  0  0  0  0  0  0  0  0
    5.8414    5.3650   -7.4491 S   0  0  0  0  0  0  0  0  0  0  0  0
    5.9179    3.5942   -2.2437 O   0  0  0  0  0  0  0  0  0  0  0  0
    7.0047    0.9983   -5.4504 O   0  0  0  0  0  0  0  0  0  0  0  0
    5.3035   -0.2551   -6.1671 O   0  0  0  0  0  0  0  0  0  0  0  0
    5.9327   -2.6577   -2.2893 O   0  0  0  0  0  0  0  0  0  0  0  0
    6.6614   -1.8959   -0.2434 O   0  0  0  0  0  0  0  0  0  0  0  0
    5.3273    2.9207   -4.3388 N   0  0  0  0  0  0  0  0  0  0  0  0
    5.5126    0.4503   -2.0853 N   0  0  0  0  0  0  0  0  0  0  0  0
    4.9691    4.3163   -6.2236 C   0  0  0  0  0  0  0  0  0  0  0  0
    4.8467    2.8623   -6.6945 C   0  0  0  0  0  0  0  0  0  0  0  0
    4.8132    2.0191   -5.3890 C   0  0  1  0  0  0  0  0  0  0  0  0
    5.7613    4.1823   -4.9181 C   0  0  0  0  0  0  0  0  0  0  0  0
    5.3379    2.7725   -2.9605 C   0  0  0  0  0  0  0  0  0  0  0  0
    3.1778    5.8309   -7.5730 C   0  0  0  0  0  0  0  0  0  0  0  0
    4.4985    6.5411   -7.7823 C   0  0  0  0  0  0  0  0  0  0  0  0
    5.6809    0.7740   -5.6493 C   0  0  0  0  0  0  0  0  0  0  0  0
    4.5843    1.5812   -2.3198 C   0  0  2  0  0  0  0  0  0  0  0  0
    4.8704   -0.7103   -1.4057 C   0  0  1  0  0  0  0  0  0  0  0  0
    3.8510    2.0276   -1.0402 C   0  0  0  0  0  0  0  0  0  0  0  0
    3.6589   -1.2339   -2.1983 C   0  0  0  0  0  0  0  0  0  0  0  0
    2.9771   -2.4271   -1.5256 C   0  0  0  0  0  0  0  0  0  0  0  0
    5.9226   -1.8185   -1.2115 C   0  0  0  0  0  0  0  0  0  0  0  0
    1.8187   -2.9115   -2.3564 C   0  0  0  0  0  0  0  0  0  0  0  0
    2.0175   -3.8935   -3.3361 C   0  0  0  0  0  0  0  0  0  0  0  0
    0.5431   -2.3618   -2.1847 C   0  0  0  0  0  0  0  0  0  0  0  0
    6.8788   -3.7241   -2.2460 C   0  0  0  0  0  0  0  0  0  0  0  0
    0.9499   -4.3352   -4.1161 C   0  0  0  0  0  0  0  0  0  0  0  0
   -0.5230   -2.8053   -2.9660 C   0  0  0  0  0  0  0  0  0  0  0  0
   -0.3202   -3.7931   -3.9287 C   0  0  0  0  0  0  0  0  0  0  0  0
    8.2187   -3.2098   -2.7249 C   0  0  0  0  0  0  0  0  0  0  0  0
  1 10  1  0  0  0  0
  1 15  1  0  0  0  0
  2 10  1  0  0  0  0
  2 16  1  0  0  0  0
  3 14  2  0  0  0  0
  4 17  1  0  0  0  0
  5 17  2  0  0  0  0
  6 23  1  0  0  0  0
  6 27  1  0  0  0  0
  7 23  2  0  0  0  0
  8 12  1  0  0  0  0
  8 13  1  0  0  0  0
  8 14  1  0  0  0  0
 10 11  1  0  0  0  0
 10 13  1  0  0  0  0
 11 12  1  0  0  0  0
 12 17  1  6  0  0  0
 14 18  1  0  0  0  0
 15 16  1  0  0  0  0
 18  9  1  1  0  0  0
 18 20  1  0  0  0  0
 19  9  1  6  0  0  0
 19 21  1  0  0  0  0
 19 23  1  0  0  0  0
 21 22  1  0  0  0  0
 22 24  1  0  0  0  0
 24 25  2  0  0  0  0
 24 26  1  0  0  0  0
 25 28  1  0  0  0  0
 26 29  2  0  0  0  0
 27 31  1  0  0  0  0
 28 30  2  0  0  0  0
 29 30  1  0  0  0  0
M  END
