421
 OpenBabel10141417503D

 29 33  0  0  1  0  0  0  0  0999 V2000
   -3.4387    4.1369   -5.7497 S   0  0  0  0  0  0  0  0  0  0  0  0
   -3.2026    4.1204  -12.0180 O   0  0  0  0  0  0  0  0  0  0  0  0
   -1.5203    5.0150  -13.2752 O   0  0  0  0  0  0  0  0  0  0  0  0
   -3.8492   -1.1350   -3.1194 O   0  0  0  0  0  0  0  0  0  0  0  0
   -3.6382    4.1189   -3.1461 O   0  0  0  0  0  0  0  0  0  0  0  0
   -3.7247    3.9447   -9.5837 C   0  0  1  0  0  0  0  0  0  0  0  0
   -5.0557    4.1323   -8.7900 C   0  0  2  0  0  0  0  0  0  0  0  0
   -5.3982    3.1576   -7.6213 C   0  0  1  0  0  0  0  0  0  0  0  0
   -4.0840    4.5652  -10.9851 C   0  0  2  0  0  0  0  0  0  0  0  0
   -4.9068    1.6948   -7.8495 C   0  0  1  0  0  0  0  0  0  0  0  0
   -3.3502    2.4479   -9.7049 C   0  0  0  0  0  0  0  0  0  0  0  0
   -6.1682    4.0425   -9.8787 C   0  0  0  0  0  0  0  0  0  0  0  0
   -5.2330    0.7043   -6.6445 C   0  0  2  0  0  0  0  0  0  0  0  0
   -3.4667    1.6686   -8.3919 C   0  0  0  0  0  0  0  0  0  0  0  0
   -5.4896    4.0241  -11.2391 C   0  0  0  0  0  0  0  0  0  0  0  0
   -5.1654    3.7306   -6.1867 C   0  0  1  0  0  0  0  0  0  0  0  0
   -2.5166    4.6681   -8.9615 C   0  0  0  0  0  0  0  0  0  0  0  0
   -4.0738    6.0911  -11.0906 C   0  0  0  0  0  0  0  0  0  0  0  0
   -5.1819    1.3771   -5.2732 C   0  0  0  0  0  0  0  0  0  0  0  0
   -5.7821    2.7561   -5.1756 C   0  0  0  0  0  0  0  0  0  0  0  0
   -4.2759   -0.5229   -6.6457 C   0  0  0  0  0  0  0  0  0  0  0  0
   -6.6865    0.1908   -6.8412 C   0  0  0  0  0  0  0  0  0  0  0  0
   -2.7445    6.4107  -11.7315 C   0  0  0  0  0  0  0  0  0  0  0  0
   -2.4069    5.1404  -12.4455 C   0  0  0  0  0  0  0  0  0  0  0  0
   -4.4273   -1.4260   -5.4283 C   0  0  0  0  0  0  0  0  0  0  0  0
   -4.6928    0.7885   -4.1658 C   0  0  0  0  0  0  0  0  0  0  0  0
   -4.2532   -0.6269   -4.1624 C   0  0  0  0  0  0  0  0  0  0  0  0
   -3.6604    4.8217   -4.1475 C   0  0  0  0  0  0  0  0  0  0  0  0
   -3.9206    6.2985   -4.1140 C   0  0  0  0  0  0  0  0  0  0  0  0
  1 28  1  0  0  0  0
  2 24  1  0  0  0  0
  3 24  2  0  0  0  0
  4 27  2  0  0  0  0
  5 28  2  0  0  0  0
  6  7  1  0  0  0  0
  6  9  1  0  0  0  0
  6 11  1  0  0  0  0
  6 17  1  6  0  0  0
  7 12  1  6  0  0  0
  8  7  1  6  0  0  0
  8 10  1  0  0  0  0
  8 16  1  0  0  0  0
  9  2  1  6  0  0  0
  9 15  1  0  0  0  0
  9 18  1  0  0  0  0
 10 13  1  0  0  0  0
 10 14  1  6  0  0  0
 11 14  1  0  0  0  0
 12 15  1  0  0  0  0
 13 19  1  0  0  0  0
 13 21  1  0  0  0  0
 13 22  1  6  0  0  0
 16 20  1  0  0  0  0
 16  1  1  1  0  0  0
 18 23  1  0  0  0  0
 19 20  1  0  0  0  0
 19 26  2  0  0  0  0
 21 25  1  0  0  0  0
 23 24  1  0  0  0  0
 25 27  1  0  0  0  0
 26 27  1  0  0  0  0
 28 29  1  0  0  0  0
M  END
