428
 OpenBabel10141417473D

 18 18  0  0  1  0  0  0  0  0999 V2000
    1.4132    0.7525   -0.7886 O   0  0  0  0  0  0  0  0  0  0  0  0
    0.0212   -3.1973   -0.3463 O   0  0  0  0  0  0  0  0  0  0  0  0
    2.7346   -2.7009   -0.4402 O   0  0  0  0  0  0  0  0  0  0  0  0
    0.4343    0.7911    1.3092 O   0  0  0  0  0  0  0  0  0  0  0  0
    3.3124   -0.0248   -2.7790 O   0  0  0  0  0  0  0  0  0  0  0  0
   -2.7721   -2.1954   -1.0852 O   0  0  0  0  0  0  0  0  0  0  0  0
   -5.0112   -1.1696    2.6931 O   0  0  0  0  0  0  0  0  0  0  0  0
   -1.7407   -0.8952    0.4459 N   0  0  0  0  0  0  0  0  0  0  0  0
   -3.9390   -1.6732    0.8313 N   0  0  0  0  0  0  0  0  0  0  0  0
   -3.9524   -1.0209    2.0694 N   0  0  0  0  0  0  0  0  0  0  0  0
    0.5089   -1.8862   -0.0121 C   0  0  2  0  0  0  0  0  0  0  0  0
   -0.4918   -0.7613   -0.3346 C   0  0  2  0  0  0  0  0  0  0  0  0
    1.8025   -1.6750   -0.8079 C   0  0  1  0  0  0  0  0  0  0  0  0
    2.3775   -0.2830   -0.5300 C   0  0  1  0  0  0  0  0  0  0  0  0
    0.1928    0.6041   -0.0805 C   0  0  2  0  0  0  0  0  0  0  0  0
    3.6267   -0.0164   -1.3858 C   0  0  0  0  0  0  0  0  0  0  0  0
   -2.8235   -1.6165    0.0062 C   0  0  0  0  0  0  0  0  0  0  0  0
   -5.1262   -2.3990    0.4011 C   0  0  0  0  0  0  0  0  0  0  0  0
  1 14  1  0  0  0  0
  1 15  1  0  0  0  0
  5 16  1  0  0  0  0
  6 17  2  0  0  0  0
  7 10  2  0  0  0  0
  8 17  1  0  0  0  0
  9 10  1  0  0  0  0
  9 17  1  0  0  0  0
  9 18  1  0  0  0  0
 11 12  1  0  0  0  0
 11 13  1  0  0  0  0
 11  2  1  6  0  0  0
 12  8  1  1  0  0  0
 12 15  1  0  0  0  0
 13  3  1  1  0  0  0
 13 14  1  0  0  0  0
 14 16  1  6  0  0  0
 15  4  1  1  0  0  0
M  END
