
 OpenBabel10141417503D

 40 42  0  0  1  0  0  0  0  0999 V2000
   -7.1801   -0.5922    5.4059 C   0  0  1  0  0  0  0  0  0  0  0  0
   -7.3389   -1.2056    6.7897 C   0  0  1  0  0  0  0  0  0  0  0  0
   -7.4668    1.6494    6.4775 O   0  0  0  0  0  0  0  0  0  0  0  0
   -6.5508    0.8298    5.7395 C   0  0  1  0  0  0  0  0  0  0  0  0
   -8.3906   -0.4345    7.6052 C   0  0  2  0  0  0  0  0  0  0  0  0
   -8.5886    1.0416    7.1686 C   0  0  2  0  0  0  0  0  0  0  0  0
   -4.2148    2.6129    9.0330 C   0  0  2  0  0  0  0  0  0  0  0  0
   -4.6099    4.0546    8.7310 C   0  0  0  0  0  0  0  0  0  0  0  0
   -3.1582    2.1744    8.1780 O   0  0  0  0  0  0  0  0  0  0  0  0
   -3.3244    0.7821    7.9523 C   0  0  2  0  0  0  0  0  0  0  0  0
   -4.8312    0.6197    7.7085 C   0  0  2  0  0  0  0  0  0  0  0  0
   -2.9663    0.0685    9.1462 O   0  0  0  0  0  0  0  0  0  0  0  0
    0.1232    0.3004    7.7513 C   0  0  1  0  0  0  0  0  0  0  0  0
    0.3085   -0.4541    6.5400 O   0  0  0  0  0  0  0  0  0  0  0  0
   -1.6034    0.1110    9.6499 C   0  0  2  0  0  0  0  0  0  0  0  0
   -0.6068    2.4318    8.9399 C   0  0  1  0  0  0  0  0  0  0  0  0
   -1.2908    3.7035    8.9631 O   0  0  0  0  0  0  0  0  0  0  0  0
   -1.1394    1.5251   10.0746 C   0  0  2  0  0  0  0  0  0  0  0  0
   -0.4231    1.7497    7.5416 C   0  0  1  0  0  0  0  0  0  0  0  0
   -0.7161   -0.6217    8.6509 C   0  0  2  0  0  0  0  0  0  0  0  0
    0.1836   -1.5077    9.3403 O   0  0  0  0  0  0  0  0  0  0  0  0
   -0.2415    1.6723   11.1995 N   0  0  0  0  0  0  0  0  0  0  0  0
    0.8081   -0.3404   11.5115 N   0  0  0  0  0  0  0  0  0  0  0  0
    0.3958    0.8105   11.9763 C   0  0  0  0  0  0  0  0  0  0  0  0
    0.6426    1.0752   13.2227 N   0  0  0  0  0  0  0  0  0  0  0  0
   -5.2046    0.9441    6.3308 O   0  0  0  0  0  0  0  0  0  0  0  0
   -8.0213   -0.5220    8.9906 O   0  0  0  0  0  0  0  0  0  0  0  0
   -7.5385   -2.6097    6.7770 O   0  0  0  0  0  0  0  0  0  0  0  0
   -9.8828    1.3133    6.3914 C   0  0  0  0  0  0  0  0  0  0  0  0
   -9.9111    0.6643    5.1333 O   0  0  0  0  0  0  0  0  0  0  0  0
   -7.4265   -2.5332    3.8211 C   0  0  0  0  0  0  0  0  0  0  0  0
   -6.5972   -1.3893    4.2843 N   0  0  0  0  0  0  0  0  0  0  0  0
    0.5334    2.5301    6.7130 N   0  0  0  0  0  0  0  0  0  0  0  0
   -0.5011    4.5803    6.8459 N   0  0  0  0  0  0  0  0  0  0  0  0
    0.2019    3.7102    6.1153 C   0  0  0  0  0  0  0  0  0  0  0  0
    0.5115    4.0620    4.9287 N   0  0  0  0  0  0  0  0  0  0  0  0
   -5.3581    0.8324   10.1692 C   0  0  0  0  0  0  0  0  0  0  0  0
   -6.5078    0.6335   10.7606 O   0  0  0  0  0  0  0  0  0  0  0  0
   -5.3004    1.5631    8.8692 C   0  0  1  0  0  0  0  0  0  0  0  0
   -6.5135    2.2056    8.6281 O   0  0  0  0  0  0  0  0  0  0  0  0
  1  4  1  0  0  0  0
  1 32  1  6  0  0  0
  2  1  1  0  0  0  0
  2 28  1  6  0  0  0
  3  4  1  0  0  0  0
  3  6  1  0  0  0  0
  4 26  1  1  0  0  0
  5  2  1  0  0  0  0
  5 27  1  1  0  0  0
  6  5  1  0  0  0  0
  6 29  1  6  0  0  0
  7 39  1  0  0  0  0
  7  8  1  6  0  0  0
  9  7  1  0  0  0  0
  9 10  1  0  0  0  0
 10 12  1  1  0  0  0
 11 10  1  0  0  0  0
 11 26  1  6  0  0  0
 13 14  1  6  0  0  0
 15 12  1  6  0  0  0
 15 20  1  0  0  0  0
 16 18  1  0  0  0  0
 16 17  1  6  0  0  0
 18 15  1  0  0  0  0
 18 22  1  1  0  0  0
 19 13  1  0  0  0  0
 19 16  1  0  0  0  0
 19 33  1  6  0  0  0
 20 13  1  0  0  0  0
 20 21  1  1  0  0  0
 22 24  1  0  0  0  0
 24 23  1  0  0  0  0
 24 25  2  0  0  0  0
 29 30  1  0  0  0  0
 32 31  1  0  0  0  0
 34 35  1  0  0  0  0
 35 33  1  0  0  0  0
 35 36  2  0  0  0  0
 37 38  2  0  0  0  0
 39 11  1  0  0  0  0
 39 37  1  1  0  0  0
 39 40  1  0  0  0  0
M  END
