
 OpenBabel10141419013D

 78 79  0  0  1  0  0  0  0  0999 V2000
   13.7113   -3.2139   -5.0768 O   0  0  0  0  0  0  0  0  0  0  0  0
   12.3731   -3.1209   -3.8189 Al  0  0  0  0  0  0  0  0  0  0  0  0
   10.7977   -2.6940   -4.6557 O   0  0  0  0  0  0  0  0  0  0  0  0
   12.8417   -1.8587   -2.5461 O   0  0  0  0  0  0  0  0  0  0  0  0
   12.2783   -0.2739   -2.9557 S   0  0  0  0  0  0  0  0  0  0  0  0
   12.7031    0.7183   -1.8568 O   0  0  0  0  0  0  0  0  0  0  0  0
   12.9860    0.2106   -4.2305 O   0  0  0  0  0  0  0  0  0  0  0  0
   10.5508   -0.2387   -3.2353 O   0  0  0  0  0  0  0  0  0  0  0  0
   10.1100    1.0602   -3.5677 C   0  0  0  0  0  0  0  0  0  0  0  0
    8.5811    1.1054   -3.8179 C   0  0  1  0  0  0  0  0  0  0  0  0
    8.3084    2.4535   -4.1338 O   0  0  0  0  0  0  0  0  0  0  0  0
    6.9749    2.7650   -3.7992 C   0  0  1  0  0  0  0  0  0  0  0  0
    6.8000    4.1843   -3.8423 O   0  0  0  0  0  0  0  0  0  0  0  0
    5.5036    4.7146   -3.5314 C   0  0  2  0  0  0  0  0  0  0  0  0
    5.4859    6.2914   -3.6263 C   0  0  0  0  0  0  0  0  0  0  0  0
    4.2516    6.8837   -3.3358 O   0  0  0  0  0  0  0  0  0  0  0  0
    4.3611    8.6075   -3.4738 S   0  0  0  0  0  0  0  0  0  0  0  0
    2.9858    9.2135   -3.1467 O   0  0  0  0  0  0  0  0  0  0  0  0
    5.3380    9.1625   -2.4227 O   0  0  0  0  0  0  0  0  0  0  0  0
    4.8919    9.1014   -5.0457 O   0  0  0  0  0  0  0  0  0  0  0  0
    4.9976   10.9491   -5.1577 Al  0  0  0  0  0  0  0  0  0  0  0  0
    6.6638   11.5479   -4.6669 O   0  0  0  0  0  0  0  0  0  0  0  0
    4.6500   11.4862   -6.8790 O   0  0  0  0  0  0  0  0  0  0  0  0
    5.1062    4.2878   -2.2336 O   0  0  0  0  0  0  0  0  0  0  0  0
    3.8359    3.6470   -2.3335 C   0  0  2  0  0  0  0  0  0  0  0  0
    4.0130    2.2382   -2.2295 O   0  0  0  0  0  0  0  0  0  0  0  0
    2.4620    1.4307   -2.3500 S   0  0  0  0  0  0  0  0  0  0  0  0
    2.6585   -0.0906   -2.2371 O   0  0  0  0  0  0  0  0  0  0  0  0
    1.6176    1.8194   -1.1247 O   0  0  0  0  0  0  0  0  0  0  0  0
    1.5102    1.7335   -3.7578 O   0  0  0  0  0  0  0  0  0  0  0  0
   -0.0750    0.7425   -3.6042 Al  0  0  0  0  0  0  0  0  0  0  0  0
   -1.4195    1.6858   -2.7581 O   0  0  0  0  0  0  0  0  0  0  0  0
   -0.6876    0.2485   -5.2582 O   0  0  0  0  0  0  0  0  0  0  0  0
    3.2030    4.0482   -3.7004 C   0  0  1  0  0  0  0  0  0  0  0  0
    2.5978    5.3292   -3.7121 O   0  0  0  0  0  0  0  0  0  0  0  0
    1.8931    5.7641   -5.2510 S   0  0  0  0  0  0  0  0  0  0  0  0
    1.2605    7.1623   -5.1777 O   0  0  0  0  0  0  0  0  0  0  0  0
    2.9926    5.8488   -6.3229 O   0  0  0  0  0  0  0  0  0  0  0  0
    0.6761    4.6569   -5.8002 O   0  0  0  0  0  0  0  0  0  0  0  0
   -0.0077    5.2146   -7.4474 Al  0  0  0  0  0  0  0  0  0  0  0  0
    0.9479    4.4962   -8.8479 O   0  0  0  0  0  0  0  0  0  0  0  0
    0.0110    7.0431   -7.5854 O   0  0  0  0  0  0  0  0  0  0  0  0
    4.4893    4.0496   -4.5220 C   0  0  2  0  0  0  0  0  0  0  0  0
    4.8390    2.6826   -4.7331 O   0  0  0  0  0  0  0  0  0  0  0  0
    6.3012    2.4906   -5.6654 S   0  0  0  0  0  0  0  0  0  0  0  0
    6.6210    0.9995   -5.8563 O   0  0  0  0  0  0  0  0  0  0  0  0
    6.0996    3.0601   -7.0758 O   0  0  0  0  0  0  0  0  0  0  0  0
    7.6569    3.2790   -4.9296 O   0  0  0  0  0  0  0  0  0  0  0  0
    9.1995    3.0544   -5.9494 Al  0  0  0  0  0  0  0  0  0  0  0  0
    9.4137    4.3935   -7.1891 O   0  0  0  0  0  0  0  0  0  0  0  0
   10.6777    3.0522   -4.8564 O   0  0  0  0  0  0  0  0  0  0  0  0
    6.1408    2.1338   -4.9257 C   0  0  2  0  0  0  0  0  0  0  0  0
    4.7515    2.4340   -4.7919 O   0  0  0  0  0  0  0  0  0  0  0  0
    3.6134    1.8043   -5.9846 S   0  0  0  0  0  0  0  0  0  0  0  0
    2.1414    2.1813   -5.7552 O   0  0  0  0  0  0  0  0  0  0  0  0
    3.9427    2.3831   -7.3667 O   0  0  0  0  0  0  0  0  0  0  0  0
    3.7548    0.0725   -6.1163 O   0  0  0  0  0  0  0  0  0  0  0  0
    2.6114   -0.7665   -7.3464 Al  0  0  0  0  0  0  0  0  0  0  0  0
    6.4868    0.6274   -5.2798 C   0  0  1  0  0  0  0  0  0  0  0  0
    6.2166    0.2779   -6.6493 O   0  0  0  0  0  0  0  0  0  0  0  0
    6.5936   -1.3818   -7.0546 S   0  0  0  0  0  0  0  0  0  0  0  0
    6.2536   -1.5884   -8.5263 O   0  0  0  0  0  0  0  0  0  0  0  0
    8.1099   -1.6256   -6.9372 O   0  0  0  0  0  0  0  0  0  0  0  0
    5.7872   -2.6456   -6.1960 O   0  0  0  0  0  0  0  0  0  0  0  0
    6.4230   -4.2817   -6.8774 Al  0  0  0  0  0  0  0  0  0  0  0  0
    7.9078   -4.8958   -5.9642 O   0  0  0  0  0  0  0  0  0  0  0  0
    6.8700   -4.1435   -8.6499 O   0  0  0  0  0  0  0  0  0  0  0  0
    7.9825    0.2060   -4.9659 C   0  0  2  0  0  0  0  0  0  0  0  0
    7.9119   -1.1901   -4.6391 O   0  0  0  0  0  0  0  0  0  0  0  0
    9.4125   -1.9693   -4.2382 S   0  0  0  0  0  0  0  0  0  0  0  0
    9.1849   -3.4501   -3.9132 O   0  0  0  0  0  0  0  0  0  0  0  0
   10.3197   -1.9097   -5.4705 O   0  0  0  0  0  0  0  0  0  0  0  0
   10.3229   -1.2475   -2.9566 O   0  0  0  0  0  0  0  0  0  0  0  0
   11.8975   -2.2467   -2.6936 Al  0  0  0  0  0  0  0  0  0  0  0  0
   13.3151   -1.6569   -3.7155 O   0  0  0  0  0  0  0  0  0  0  0  0
   12.4412   -2.2192   -0.9383 O   0  0  0  0  0  0  0  0  0  0  0  0
    3.3229   -0.9107   -9.0400 O   0  0  0  0  0  0  0  0  0  0  0  0
    1.0537    0.2066   -7.4819 O   0  0  0  0  0  0  0  0  0  0  0  0
  1  2  1  0  0  0  0
  2  3  1  0  0  0  0
  2  4  1  0  0  0  0
  4  5  1  0  0  0  0
  5  6  2  0  0  0  0
  5  7  2  0  0  0  0
  5  8  1  0  0  0  0
  8  9  1  0  0  0  0
 10 11  1  0  0  0  0
 10 68  1  0  0  0  0
 10  9  1  6  0  0  0
 11 12  1  0  0  0  0
 12 13  1  6  0  0  0
 12 52  1  0  0  0  0
 14 13  1  6  0  0  0
 14 15  1  0  0  0  0
 14 24  1  0  0  0  0
 14 43  1  0  0  0  0
 15 16  1  0  0  0  0
 16 17  1  0  0  0  0
 17 18  2  0  0  0  0
 17 19  2  0  0  0  0
 17 20  1  0  0  0  0
 20 21  1  0  0  0  0
 21 22  1  0  0  0  0
 21 23  1  0  0  0  0
 24 25  1  0  0  0  0
 25 34  1  0  0  0  0
 25 26  1  6  0  0  0
 26 27  1  0  0  0  0
 27 28  2  0  0  0  0
 27 29  2  0  0  0  0
 27 30  1  0  0  0  0
 30 31  1  0  0  0  0
 31 32  1  0  0  0  0
 31 33  1  0  0  0  0
 34 35  1  1  0  0  0
 34 43  1  0  0  0  0
 35 36  1  0  0  0  0
 36 37  2  0  0  0  0
 36 38  2  0  0  0  0
 36 39  1  0  0  0  0
 39 40  1  0  0  0  0
 40 41  1  0  0  0  0
 40 42  1  0  0  0  0
 43 44  1  1  0  0  0
 44 45  1  0  0  0  0
 45 46  2  0  0  0  0
 45 47  2  0  0  0  0
 45 48  1  0  0  0  0
 48 49  1  0  0  0  0
 49 50  1  0  0  0  0
 49 51  1  0  0  0  0
 52 59  1  0  0  0  0
 52 53  1  1  0  0  0
 53 54  1  0  0  0  0
 54 55  2  0  0  0  0
 54 56  2  0  0  0  0
 54 57  1  0  0  0  0
 57 58  1  0  0  0  0
 58 77  1  0  0  0  0
 58 78  1  0  0  0  0
 59 60  1  6  0  0  0
 59 68  1  0  0  0  0
 60 61  1  0  0  0  0
 61 62  2  0  0  0  0
 61 63  2  0  0  0  0
 61 64  1  0  0  0  0
 64 65  1  0  0  0  0
 65 66  1  0  0  0  0
 65 67  1  0  0  0  0
 68 69  1  1  0  0  0
 69 70  1  0  0  0  0
 70 71  2  0  0  0  0
 70 72  2  0  0  0  0
 70 73  1  0  0  0  0
 73 74  1  0  0  0  0
 74 75  1  0  0  0  0
 74 76  1  0  0  0  0
M  END
