708
 OpenBabel10141417563D

 27 29  0  0  0  0  0  0  0  0999 V2000
    0.3163   -0.7472    1.9171 S   0  0  0  0  0  0  0  0  0  0  0  0
   -5.9427   -5.0279   -1.2612 O   0  0  0  0  0  0  0  0  0  0  0  0
   -4.8790   -4.3120   -5.2832 O   0  0  0  0  0  0  0  0  0  0  0  0
   -3.4028   -3.1927   -0.0772 N   0  0  0  0  0  0  0  0  0  0  0  0
   -3.2649   -5.3121   -3.9729 N   0  0  0  0  0  0  0  0  0  0  0  0
   -3.8828   -4.8518   -2.6209 C   0  0  0  0  0  0  0  0  0  0  0  0
   -3.0078   -5.2728   -1.3933 C   0  0  0  0  0  0  0  0  0  0  0  0
   -3.9409   -3.2898   -2.5662 C   0  0  0  0  0  0  0  0  0  0  0  0
   -3.3869   -4.6530   -0.0555 C   0  0  0  0  0  0  0  0  0  0  0  0
   -4.2506   -2.7010   -1.1751 C   0  0  0  0  0  0  0  0  0  0  0  0
   -5.3246   -5.4673   -2.4656 C   0  0  0  0  0  0  0  0  0  0  0  0
   -2.0602   -2.5894   -0.0776 C   0  0  0  0  0  0  0  0  0  0  0  0
   -2.0530   -6.0694   -3.9408 C   0  0  0  0  0  0  0  0  0  0  0  0
   -3.8609   -4.9960   -5.2131 C   0  0  0  0  0  0  0  0  0  0  0  0
   -1.2569   -2.9277    1.1952 C   0  0  0  0  0  0  0  0  0  0  0  0
   -3.2063   -5.5344   -6.5010 C   0  0  0  0  0  0  0  0  0  0  0  0
   -2.0203   -7.3234   -3.3227 C   0  0  0  0  0  0  0  0  0  0  0  0
   -0.8970   -5.5755   -4.5506 C   0  0  0  0  0  0  0  0  0  0  0  0
    0.0961   -2.2831    1.1981 C   0  0  0  0  0  0  0  0  0  0  0  0
   -7.2098   -5.5772   -0.9743 C   0  0  0  0  0  0  0  0  0  0  0  0
   -4.1742   -5.7567   -7.6562 C   0  0  0  0  0  0  0  0  0  0  0  0
   -0.8240   -8.0322   -3.2346 C   0  0  0  0  0  0  0  0  0  0  0  0
    0.2871   -6.3133   -4.5136 C   0  0  0  0  0  0  0  0  0  0  0  0
    1.2796   -2.7918    0.7002 C   0  0  0  0  0  0  0  0  0  0  0  0
    0.3292   -7.5312   -3.8365 C   0  0  0  0  0  0  0  0  0  0  0  0
    2.3750   -1.9083    0.9152 C   0  0  0  0  0  0  0  0  0  0  0  0
    1.9887   -0.7599    1.5689 C   0  0  0  0  0  0  0  0  0  0  0  0
  1 19  1  0  0  0  0
  1 27  1  0  0  0  0
  2 11  1  0  0  0  0
  2 20  1  0  0  0  0
  3 14  2  0  0  0  0
  4  9  1  0  0  0  0
  4 10  1  0  0  0  0
  4 12  1  0  0  0  0
  5  6  1  0  0  0  0
  5 13  1  0  0  0  0
  5 14  1  0  0  0  0
  6  7  1  0  0  0  0
  6  8  1  0  0  0  0
  6 11  1  0  0  0  0
  7  9  1  0  0  0  0
  8 10  1  0  0  0  0
 12 15  1  0  0  0  0
 13 17  2  0  0  0  0
 13 18  1  0  0  0  0
 14 16  1  0  0  0  0
 15 19  1  0  0  0  0
 16 21  1  0  0  0  0
 17 22  1  0  0  0  0
 18 23  2  0  0  0  0
 19 24  2  0  0  0  0
 22 25  2  0  0  0  0
 23 25  1  0  0  0  0
 24 26  1  0  0  0  0
 26 27  2  0  0  0  0
M  END
