
 OpenBabel10141417493D

 21 22  0  0  0  0  0  0  0  0999 V2000
    4.9018    2.9265    0.1345 C   0  0  0  0  0  0  0  0  0  0  0  0
    5.3922    2.8437   -1.1057 N   0  0  0  0  0  0  0  0  0  0  0  0
    5.2097    1.6874   -1.7484 C   0  0  0  0  0  0  0  0  0  0  0  0
    4.5738    0.6238   -1.2520 N   0  0  0  0  0  0  0  0  0  0  0  0
    4.0738    0.7855   -0.0194 C   0  0  0  0  0  0  0  0  0  0  0  0
    3.2980   -0.3186    0.4008 N   0  0  0  0  0  0  0  0  0  0  0  0
    1.6406   -0.2440    0.0518 S   0  0  0  0  0  0  0  0  0  0  0  0
    1.1740   -1.6106   -0.0248 O   0  0  0  0  0  0  0  0  0  0  0  0
    1.0237    0.7122    0.9621 O   0  0  0  0  0  0  0  0  0  0  0  0
    1.5862    0.4582   -1.5799 C   0  0  0  0  0  0  0  0  0  0  0  0
    1.6895   -0.3787   -2.6910 C   0  0  0  0  0  0  0  0  0  0  0  0
    1.7737    0.1919   -3.9626 C   0  0  0  0  0  0  0  0  0  0  0  0
    1.8023    1.5820   -4.1256 C   0  0  0  0  0  0  0  0  0  0  0  0
    1.7901    2.1382   -5.4100 N   0  0  0  0  0  0  0  0  0  0  0  0
    1.6104    2.3995   -3.0073 C   0  0  0  0  0  0  0  0  0  0  0  0
    1.5096    1.8451   -1.7320 C   0  0  0  0  0  0  0  0  0  0  0  0
    4.2002    1.9191    0.7407 C   0  0  0  0  0  0  0  0  0  0  0  0
    5.1636    4.0613    0.8693 O   0  0  0  0  0  0  0  0  0  0  0  0
    5.5337    5.1763    0.0571 C   0  0  0  0  0  0  0  0  0  0  0  0
    5.7278    1.5482   -3.0197 O   0  0  0  0  0  0  0  0  0  0  0  0
    6.4866    2.6958   -3.3964 C   0  0  0  0  0  0  0  0  0  0  0  0
  1  2  2  0  0  0  0
  1 17  1  0  0  0  0
  2  3  1  0  0  0  0
  3 20  1  0  0  0  0
  3  4  2  0  0  0  0
  4  5  1  0  0  0  0
  5  6  1  0  0  0  0
  5 17  2  0  0  0  0
  6  7  1  0  0  0  0
  7  8  2  0  0  0  0
  7  9  2  0  0  0  0
  7 10  1  0  0  0  0
 10 11  2  0  0  0  0
 10 16  1  0  0  0  0
 11 12  1  0  0  0  0
 12 13  2  0  0  0  0
 13 14  1  0  0  0  0
 13 15  1  0  0  0  0
 15 16  2  0  0  0  0
 18  1  1  0  0  0  0
 18 19  1  0  0  0  0
 20 21  1  0  0  0  0
M  END
