1299
 OpenBabel10141417493D

 21 22  0  0  0  0  0  0  0  0999 V2000
   -1.6018    0.4665    1.6600 S   0  0  0  0  0  0  0  0  0  0  0  0
   -1.8845   -0.9209    1.3802 O   0  0  0  0  0  0  0  0  0  0  0  0
   -2.6738    1.4462    1.6890 O   0  0  0  0  0  0  0  0  0  0  0  0
   -1.7486    2.9345   -0.9116 O   0  0  0  0  0  0  0  0  0  0  0  0
   -1.0874    5.6940   -0.2138 O   0  0  0  0  0  0  0  0  0  0  0  0
   -0.4453    0.9724    0.5248 N   0  0  0  0  0  0  0  0  0  0  0  0
    0.9341    2.5560    1.4830 N   0  0  0  0  0  0  0  0  0  0  0  0
    1.6465    0.9827    6.6270 N   0  0  0  0  0  0  0  0  0  0  0  0
    0.6279    4.8915    1.1530 N   0  0  0  0  0  0  0  0  0  0  0  0
   -0.7361    0.5422    3.2057 C   0  0  0  0  0  0  0  0  0  0  0  0
   -0.0794    2.3460    0.6292 C   0  0  0  0  0  0  0  0  0  0  0  0
   -1.0752    1.5016    4.1607 C   0  0  0  0  0  0  0  0  0  0  0  0
    0.3143   -0.3471    3.4359 C   0  0  0  0  0  0  0  0  0  0  0  0
   -0.7984    3.3400   -0.0197 C   0  0  0  0  0  0  0  0  0  0  0  0
   -0.2860    1.6372    5.3055 C   0  0  0  0  0  0  0  0  0  0  0  0
    1.1093   -0.1821    4.5718 C   0  0  0  0  0  0  0  0  0  0  0  0
    0.8669    0.8625    5.4698 C   0  0  0  0  0  0  0  0  0  0  0  0
   -0.4000    4.6233    0.3177 C   0  0  0  0  0  0  0  0  0  0  0  0
    1.2535    3.8352    1.6841 C   0  0  0  0  0  0  0  0  0  0  0  0
   -2.7940    3.8552   -1.2030 C   0  0  0  0  0  0  0  0  0  0  0  0
   -0.6013    6.9730    0.1765 C   0  0  0  0  0  0  0  0  0  0  0  0
  1  2  2  0  0  0  0
  1  3  2  0  0  0  0
  1  6  1  0  0  0  0
  1 10  1  0  0  0  0
  4 14  1  0  0  0  0
  4 20  1  0  0  0  0
  5 18  1  0  0  0  0
  5 21  1  0  0  0  0
  6 11  1  0  0  0  0
  7 11  1  0  0  0  0
  7 19  2  0  0  0  0
  8 17  1  0  0  0  0
  9 18  2  0  0  0  0
  9 19  1  0  0  0  0
 10 12  2  0  0  0  0
 10 13  1  0  0  0  0
 11 14  2  0  0  0  0
 12 15  1  0  0  0  0
 13 16  2  0  0  0  0
 14 18  1  0  0  0  0
 15 17  2  0  0  0  0
 16 17  1  0  0  0  0
M  END
