
 OpenBabel10141417483D

 16 17  0  0  0  0  0  0  0  0999 V2000
    0.6241    0.1958    0.4111 N   0  0  0  0  0  0  0  0  0  0  0  0
    1.9946    0.1130    0.1397 C   0  0  0  0  0  0  0  0  0  0  0  0
    2.7447    1.2776   -0.0560 C   0  0  0  0  0  0  0  0  0  0  0  0
    4.1327    1.2177   -0.2083 C   0  0  0  0  0  0  0  0  0  0  0  0
    4.7792   -0.0158   -0.1108 C   0  0  0  0  0  0  0  0  0  0  0  0
    4.0516   -1.1817    0.1332 C   0  0  0  0  0  0  0  0  0  0  0  0
    2.6654   -1.1056    0.2863 C   0  0  0  0  0  0  0  0  0  0  0  0
    6.5358   -0.1103   -0.3626 S   0  0  0  0  0  0  0  0  0  0  0  0
    6.8429   -1.4762   -0.7389 O   0  0  0  0  0  0  0  0  0  0  0  0
    6.9063    1.0070   -1.2003 O   0  0  0  0  0  0  0  0  0  0  0  0
    7.0976    0.0918    1.2274 N   0  0  0  0  0  0  0  0  0  0  0  0
    8.3648    0.7249    1.2128 C   0  0  0  0  0  0  0  0  0  0  0  0
    9.4360   -0.0145    1.3522 N   0  0  0  0  0  0  0  0  0  0  0  0
   10.5504    0.7989    1.2595 C   0  0  0  0  0  0  0  0  0  0  0  0
   10.2950    2.1515    1.1661 C   0  0  0  0  0  0  0  0  0  0  0  0
    8.5991    2.4155    1.1608 S   0  0  0  0  0  0  0  0  0  0  0  0
  1  2  1  0  0  0  0
  2  3  2  0  0  0  0
  2  7  1  0  0  0  0
  3  4  1  0  0  0  0
  4  5  2  0  0  0  0
  5  6  1  0  0  0  0
  5  8  1  0  0  0  0
  6  7  2  0  0  0  0
  8  9  2  0  0  0  0
  8 10  2  0  0  0  0
  8 11  1  0  0  0  0
 11 12  1  0  0  0  0
 12 13  2  0  0  0  0
 12 16  1  0  0  0  0
 13 14  1  0  0  0  0
 14 15  2  0  0  0  0
 15 16  1  0  0  0  0
M  END
