1298
 OpenBabel10141417493D

 20 21  0  0  0  0  0  0  0  0999 V2000
    1.3290    0.0545    0.5851 S   0  0  0  0  0  0  0  0  0  0  0  0
    2.4649    0.9037    0.3207 O   0  0  0  0  0  0  0  0  0  0  0  0
    1.2999   -1.3303    0.1572 O   0  0  0  0  0  0  0  0  0  0  0  0
   -3.7862    0.9933   -2.5757 O   0  0  0  0  0  0  0  0  0  0  0  0
   -3.6129   -0.7358   -1.0801 N   0  0  0  0  0  0  0  0  0  0  0  0
   -0.0171    0.8273   -0.0287 N   0  0  0  0  0  0  0  0  0  0  0  0
   -1.9213    0.9357   -1.2884 N   0  0  0  0  0  0  0  0  0  0  0  0
    0.0441    0.2588    6.4065 N   0  0  0  0  0  0  0  0  0  0  0  0
    1.0342    0.0991    2.3363 C   0  0  0  0  0  0  0  0  0  0  0  0
   -1.2487    0.2782   -0.4155 C   0  0  0  0  0  0  0  0  0  0  0  0
   -4.9167   -1.2785   -1.4667 C   0  0  0  0  0  0  0  0  0  0  0  0
   -2.8804   -1.3924   -0.1201 C   0  0  0  0  0  0  0  0  0  0  0  0
   -1.6810   -0.9532    0.2505 C   0  0  0  0  0  0  0  0  0  0  0  0
    0.9399    1.3354    2.9776 C   0  0  0  0  0  0  0  0  0  0  0  0
    0.8662   -1.0866    3.0548 C   0  0  0  0  0  0  0  0  0  0  0  0
   -3.1378    0.4316   -1.6969 C   0  0  0  0  0  0  0  0  0  0  0  0
    0.6510    1.3787    4.3440 C   0  0  0  0  0  0  0  0  0  0  0  0
    0.5625   -1.0272    4.4177 C   0  0  0  0  0  0  0  0  0  0  0  0
    0.4943    0.2011    5.0831 C   0  0  0  0  0  0  0  0  0  0  0  0
   -6.0512   -0.7376   -0.6080 C   0  0  0  0  0  0  0  0  0  0  0  0
  1  2  2  0  0  0  0
  1  3  2  0  0  0  0
  1  6  1  0  0  0  0
  1  9  1  0  0  0  0
  4 16  2  0  0  0  0
  5 11  1  0  0  0  0
  5 12  1  0  0  0  0
  5 16  1  0  0  0  0
  6 10  1  0  0  0  0
  7 10  2  0  0  0  0
  7 16  1  0  0  0  0
  8 19  1  0  0  0  0
  9 14  2  0  0  0  0
  9 15  1  0  0  0  0
 10 13  1  0  0  0  0
 11 20  1  0  0  0  0
 12 13  2  0  0  0  0
 14 17  1  0  0  0  0
 15 18  2  0  0  0  0
 17 19  2  0  0  0  0
 18 19  1  0  0  0  0
M  END
