664
 OpenBabel10141417483D

 19 20  0  0  0  0  0  0  0  0999 V2000
    1.1426    0.4698   -0.1305 S   0  0  0  0  0  0  0  0  0  0  0  0
    0.5861    0.6311   -1.4544 O   0  0  0  0  0  0  0  0  0  0  0  0
    0.8418   -0.6924    0.6826 O   0  0  0  0  0  0  0  0  0  0  0  0
    0.7314    3.7839   -1.2499 O   0  0  0  0  0  0  0  0  0  0  0  0
    0.8382    1.8293    0.8335 N   0  0  0  0  0  0  0  0  0  0  0  0
   -1.4278    2.0955    1.1624 N   0  0  0  0  0  0  0  0  0  0  0  0
    7.0792    0.7741   -0.6783 N   0  0  0  0  0  0  0  0  0  0  0  0
   -1.6138    3.9745   -0.9758 N   0  0  0  0  0  0  0  0  0  0  0  0
    2.9104    0.5739   -0.2718 C   0  0  0  0  0  0  0  0  0  0  0  0
    3.7271   -0.0616    0.6652 C   0  0  0  0  0  0  0  0  0  0  0  0
    3.4694    1.2547   -1.3542 C   0  0  0  0  0  0  0  0  0  0  0  0
   -0.3546    2.4970    0.4497 C   0  0  0  0  0  0  0  0  0  0  0  0
    5.6919    0.7808   -0.4936 C   0  0  0  0  0  0  0  0  0  0  0  0
    5.1159    0.0335    0.5397 C   0  0  0  0  0  0  0  0  0  0  0  0
    4.8584    1.3375   -1.4691 C   0  0  0  0  0  0  0  0  0  0  0  0
   -0.4343    3.4153   -0.6065 C   0  0  0  0  0  0  0  0  0  0  0  0
   -2.6024    2.6376    0.7626 C   0  0  0  0  0  0  0  0  0  0  0  0
   -2.6933    3.5525   -0.2777 C   0  0  0  0  0  0  0  0  0  0  0  0
    0.5193    4.7524   -2.2703 C   0  0  0  0  0  0  0  0  0  0  0  0
  1  2  2  0  0  0  0
  1  3  2  0  0  0  0
  1  5  1  0  0  0  0
  1  9  1  0  0  0  0
  4 16  1  0  0  0  0
  4 19  1  0  0  0  0
  5 12  1  0  0  0  0
  6 12  2  0  0  0  0
  6 17  1  0  0  0  0
  7 13  1  0  0  0  0
  8 16  2  0  0  0  0
  8 18  1  0  0  0  0
  9 10  2  0  0  0  0
  9 11  1  0  0  0  0
 10 14  1  0  0  0  0
 11 15  2  0  0  0  0
 12 16  1  0  0  0  0
 13 14  2  0  0  0  0
 13 15  1  0  0  0  0
 17 18  2  0  0  0  0
M  END
