263
 OpenBabel10141417483D

 18 19  0  0  0  0  0  0  0  0999 V2000
    1.0107    0.0067    0.2834 S   0  0  0  0  0  0  0  0  0  0  0  0
   -1.6003    2.1372    0.8718 O   0  0  0  0  0  0  0  0  0  0  0  0
    0.4887   -0.9020   -0.7203 O   0  0  0  0  0  0  0  0  0  0  0  0
    0.7658   -0.1783    1.6947 O   0  0  0  0  0  0  0  0  0  0  0  0
    0.5826    1.6122   -0.1164 N   0  0  0  0  0  0  0  0  0  0  0  0
   -2.9263    2.1945    0.4857 N   0  0  0  0  0  0  0  0  0  0  0  0
    6.8991    0.5190   -0.5326 N   0  0  0  0  0  0  0  0  0  0  0  0
    2.7717    0.1036    0.0592 C   0  0  0  0  0  0  0  0  0  0  0  0
   -0.8367    1.7376   -0.1783 C   0  0  0  0  0  0  0  0  0  0  0  0
   -1.6286    1.5834   -1.2933 C   0  0  0  0  0  0  0  0  0  0  0  0
   -2.9381    1.8630   -0.8108 C   0  0  0  0  0  0  0  0  0  0  0  0
    3.3321   -0.2499   -1.1666 C   0  0  0  0  0  0  0  0  0  0  0  0
    3.5786    0.5482    1.1110 C   0  0  0  0  0  0  0  0  0  0  0  0
   -1.2367    1.2471   -2.6791 C   0  0  0  0  0  0  0  0  0  0  0  0
    4.7124   -0.1384   -1.3457 C   0  0  0  0  0  0  0  0  0  0  0  0
    4.9579    0.6595    0.9145 C   0  0  0  0  0  0  0  0  0  0  0  0
    5.5418    0.2738   -0.2967 C   0  0  0  0  0  0  0  0  0  0  0  0
   -4.2109    1.8520   -1.5702 C   0  0  0  0  0  0  0  0  0  0  0  0
  1  3  2  0  0  0  0
  1  4  2  0  0  0  0
  1  5  1  0  0  0  0
  1  8  1  0  0  0  0
  2  6  1  0  0  0  0
  2  9  1  0  0  0  0
  5  9  1  0  0  0  0
  6 11  2  0  0  0  0
  7 17  1  0  0  0  0
  8 12  2  0  0  0  0
  8 13  1  0  0  0  0
  9 10  2  0  0  0  0
 10 11  1  0  0  0  0
 10 14  1  0  0  0  0
 11 18  1  0  0  0  0
 12 15  1  0  0  0  0
 13 16  2  0  0  0  0
 15 17  2  0  0  0  0
 16 17  1  0  0  0  0
M  END
