1145
 OpenBabel10141417483D

 25 26  0  0  1  0  0  0  0  0999 V2000
    1.0796    0.1623    0.2463 S   0  0  0  0  0  0  0  0  0  0  0  0
   -0.2909    8.4819   -0.0397 S   0  0  3  0  0  0  0  0  0  0  0  0
    9.5727   -0.9611    0.5480 S   0  0  3  0  0  0  0  0  0  0  0  0
    0.7226   -0.6100   -0.9398 O   0  0  0  0  0  0  0  0  0  0  0  0
    0.5218   -0.1737    1.5349 O   0  0  0  0  0  0  0  0  0  0  0  0
   -0.8791    9.0111    1.3598 O   0  0  0  0  0  0  0  0  0  0  0  0
    9.7237    0.3920   -0.3043 O   0  0  0  0  0  0  0  0  0  0  0  0
    1.1963    8.6132    0.1021 O   0  0  0  0  0  0  0  0  0  0  0  0
    9.7631   -0.5512    1.9772 O   0  0  0  0  0  0  0  0  0  0  0  0
   -0.3117    5.9031   -0.8573 N   0  0  0  0  0  0  0  0  0  0  0  0
    7.0477   -0.0208    0.8278 N   0  0  0  0  0  0  0  0  0  0  0  0
    0.6453    1.8506   -0.1184 C   0  0  0  0  0  0  0  0  0  0  0  0
    2.8467    0.0699    0.4346 C   0  0  0  0  0  0  0  0  0  0  0  0
   -0.2709    2.5075    0.7040 C   0  0  0  0  0  0  0  0  0  0  0  0
    3.4627    0.7189    1.5082 C   0  0  0  0  0  0  0  0  0  0  0  0
    1.1993    2.5105   -1.2137 C   0  0  0  0  0  0  0  0  0  0  0  0
    3.6068   -0.6606   -0.4717 C   0  0  0  0  0  0  0  0  0  0  0  0
    0.0109    4.5624   -0.5904 C   0  0  0  0  0  0  0  0  0  0  0  0
    5.6477   -0.0607    0.7340 C   0  0  0  0  0  0  0  0  0  0  0  0
   -0.5963    3.8440    0.4471 C   0  0  0  0  0  0  0  0  0  0  0  0
    4.8597    0.6681    1.6383 C   0  0  0  0  0  0  0  0  0  0  0  0
    0.8747    3.8576   -1.4482 C   0  0  0  0  0  0  0  0  0  0  0  0
    4.9929   -0.7005   -0.3300 C   0  0  0  0  0  0  0  0  0  0  0  0
   -0.7438    6.7251    0.2791 C   0  0  0  0  0  0  0  0  0  0  0  0
    7.7716   -1.1483    0.2348 C   0  0  0  0  0  0  0  0  0  0  0  0
  1  4  2  0  0  0  0
  1  5  2  0  0  0  0
  1 12  1  0  0  0  0
  1 13  1  0  0  0  0
  2  6  1  0  0  0  0
  2  8  2  0  0  0  0
  2 24  1  0  0  0  0
  3  7  1  0  0  0  0
  3  9  2  0  0  0  0
  3 25  1  0  0  0  0
 10 18  1  0  0  0  0
 10 24  1  0  0  0  0
 11 19  1  0  0  0  0
 11 25  1  0  0  0  0
 12 14  2  0  0  0  0
 12 16  1  0  0  0  0
 13 15  2  0  0  0  0
 13 17  1  0  0  0  0
 14 20  1  0  0  0  0
 15 21  1  0  0  0  0
 16 22  2  0  0  0  0
 17 23  2  0  0  0  0
 18 20  2  0  0  0  0
 18 22  1  0  0  0  0
 19 21  2  0  0  0  0
 19 23  1  0  0  0  0
M  END
