
 OpenBabel10141417483D

 28 30  0  0  0  0  0  0  0  0999 V2000
   -1.8371   -0.2804    0.0452 C   0  0  0  0  0  0  0  0  0  0  0  0
   -3.6154   -0.3574    0.0655 S   0  0  0  0  0  0  0  0  0  0  0  0
   -1.1889    0.9553   -0.0289 C   0  0  0  0  0  0  0  0  0  0  0  0
   -1.1058   -1.4567    0.2188 C   0  0  0  0  0  0  0  0  0  0  0  0
   -4.0493   -0.5217   -1.5474 N   0  0  0  0  0  0  0  0  0  0  0  0
   -4.0070   -1.5331    0.8024 O   0  0  0  0  0  0  0  0  0  0  0  0
   -4.0806    0.9618    0.4692 O   0  0  0  0  0  0  0  0  0  0  0  0
    0.2048    1.0053    0.0675 C   0  0  0  0  0  0  0  0  0  0  0  0
    0.2847   -1.3923    0.3193 C   0  0  0  0  0  0  0  0  0  0  0  0
   -3.6967   -1.7209   -2.1927 C   0  0  0  0  0  0  0  0  0  0  0  0
    0.9581   -0.1644    0.2495 C   0  0  0  0  0  0  0  0  0  0  0  0
   -4.5607   -2.8020   -2.2048 C   0  0  0  0  0  0  0  0  0  0  0  0
   -2.5355   -1.6624   -2.8652 N   0  0  0  0  0  0  0  0  0  0  0  0
    2.3540   -0.0265    0.3466 N   0  0  0  0  0  0  0  0  0  0  0  0
   -4.2415   -3.8801   -3.0251 C   0  0  0  0  0  0  0  0  0  0  0  0
   -2.2281   -2.7480   -3.6139 C   0  0  0  0  0  0  0  0  0  0  0  0
    2.9705   -1.1119    0.3650 N   0  0  0  0  0  0  0  0  0  0  0  0
   -3.0522   -3.8563   -3.7463 C   0  0  0  0  0  0  0  0  0  0  0  0
    4.3686   -0.9365    0.3231 C   0  0  0  0  0  0  0  0  0  0  0  0
    4.9780    0.2954    0.0534 C   0  0  0  0  0  0  0  0  0  0  0  0
    5.1877   -2.0560    0.5175 C   0  0  0  0  0  0  0  0  0  0  0  0
    6.3671    0.4134   -0.0127 C   0  0  0  0  0  0  0  0  0  0  0  0
    6.5808   -1.9488    0.4447 C   0  0  0  0  0  0  0  0  0  0  0  0
    7.1686   -0.7146    0.1752 C   0  0  0  0  0  0  0  0  0  0  0  0
    6.9640    1.7284   -0.3004 C   0  0  0  0  0  0  0  0  0  0  0  0
    8.5346   -0.6832    0.1235 O   0  0  0  0  0  0  0  0  0  0  0  0
    6.1886    2.7445    0.1139 O   0  0  0  0  0  0  0  0  0  0  0  0
    8.0619    1.8965   -0.7981 O   0  0  0  0  0  0  0  0  0  0  0  0
  1  2  1  0  0  0  0
  1  3  1  0  0  0  0
  1  4  2  0  0  0  0
  2  5  1  0  0  0  0
  2  6  2  0  0  0  0
  2  7  2  0  0  0  0
  3  8  2  0  0  0  0
  4  9  1  0  0  0  0
  5 10  1  0  0  0  0
  8 11  1  0  0  0  0
  9 11  2  0  0  0  0
 10 12  1  0  0  0  0
 10 13  2  0  0  0  0
 11 14  1  0  0  0  0
 12 15  2  0  0  0  0
 13 16  1  0  0  0  0
 14 17  2  0  0  0  0
 15 18  1  0  0  0  0
 16 18  2  0  0  0  0
 17 19  1  0  0  0  0
 19 20  1  0  0  0  0
 19 21  2  0  0  0  0
 20 22  2  0  0  0  0
 21 23  1  0  0  0  0
 22 24  1  0  0  0  0
 22 25  1  0  0  0  0
 23 24  2  0  0  0  0
 24 26  1  0  0  0  0
 25 27  1  0  0  0  0
 25 28  2  0  0  0  0
M  END
