634
 OpenBabel10141417483D

 14 14  0  0  0  0  0  0  0  0999 V2000
    1.1294    0.0709    0.0994 S   0  0  0  0  0  0  0  0  0  0  0  0
    0.5615    1.2685   -0.4768 O   0  0  0  0  0  0  0  0  0  0  0  0
    0.7418   -1.2383   -0.3839 O   0  0  0  0  0  0  0  0  0  0  0  0
    1.4369    2.1937    2.2826 O   0  0  0  0  0  0  0  0  0  0  0  0
    0.8339    0.0319    1.7320 N   0  0  0  0  0  0  0  0  0  0  0  0
    7.0842    0.3519   -0.2255 N   0  0  0  0  0  0  0  0  0  0  0  0
    2.8992    0.1626    0.0186 C   0  0  0  0  0  0  0  0  0  0  0  0
    3.5314    1.4026   -0.0700 C   0  0  0  0  0  0  0  0  0  0  0  0
    3.6492   -1.0162    0.0036 C   0  0  0  0  0  0  0  0  0  0  0  0
    5.6859    0.2866   -0.2408 C   0  0  0  0  0  0  0  0  0  0  0  0
    4.9249    1.4582   -0.1672 C   0  0  0  0  0  0  0  0  0  0  0  0
    5.0407   -0.9461   -0.1001 C   0  0  0  0  0  0  0  0  0  0  0  0
    0.9952    1.1051    2.6135 C   0  0  0  0  0  0  0  0  0  0  0  0
    0.6289    0.7823    4.0354 C   0  0  0  0  0  0  0  0  0  0  0  0
  1  2  2  0  0  0  0
  1  3  2  0  0  0  0
  1  5  1  0  0  0  0
  1  7  1  0  0  0  0
  4 13  2  0  0  0  0
  5 13  1  0  0  0  0
  6 10  1  0  0  0  0
  7  8  2  0  0  0  0
  7  9  1  0  0  0  0
  8 11  1  0  0  0  0
  9 12  2  0  0  0  0
 10 11  2  0  0  0  0
 10 12  1  0  0  0  0
 13 14  1  0  0  0  0
M  END
