891
 OpenBabel10141417513D

 17 18  0  0  0  0  0  0  0  0999 V2000
    1.8662    0.3814    0.1927 S   0  0  0  0  0  0  0  0  0  0  0  0
    1.5875    0.3364   -1.2250 O   0  0  0  0  0  0  0  0  0  0  0  0
    0.8196    0.1151    1.1638 O   0  0  0  0  0  0  0  0  0  0  0  0
    2.5087    1.8976    0.5913 N   0  0  0  0  0  0  0  0  0  0  0  0
    4.7983    1.9365    0.5804 N   0  0  0  0  0  0  0  0  0  0  0  0
    6.5184   -3.1519    1.4278 N   0  0  0  0  0  0  0  0  0  0  0  0
    3.1978   -0.7538    0.5308 C   0  0  0  0  0  0  0  0  0  0  0  0
    4.1079   -1.0817   -0.4776 C   0  0  0  0  0  0  0  0  0  0  0  0
    3.3387   -1.2889    1.8127 C   0  0  0  0  0  0  0  0  0  0  0  0
    3.6837    2.2427   -0.1040 C   0  0  0  0  0  0  0  0  0  0  0  0
    5.3476   -2.4588    1.0966 C   0  0  0  0  0  0  0  0  0  0  0  0
    5.1957   -1.9075   -0.1799 C   0  0  0  0  0  0  0  0  0  0  0  0
    4.4326   -2.1107    2.0962 C   0  0  0  0  0  0  0  0  0  0  0  0
    3.6627    2.7153   -1.4036 C   0  0  0  0  0  0  0  0  0  0  0  0
    4.8820    2.8742   -2.0545 C   0  0  0  0  0  0  0  0  0  0  0  0
    6.0574    2.5344   -1.3906 C   0  0  0  0  0  0  0  0  0  0  0  0
    5.9657    2.0763   -0.0853 C   0  0  0  0  0  0  0  0  0  0  0  0
  1  2  2  0  0  0  0
  1  3  2  0  0  0  0
  1  4  1  0  0  0  0
  1  7  1  0  0  0  0
  4 10  1  0  0  0  0
  5 10  1  0  0  0  0
  5 17  2  0  0  0  0
  6 11  1  0  0  0  0
  7  8  2  0  0  0  0
  7  9  1  0  0  0  0
  8 12  1  0  0  0  0
  9 13  2  0  0  0  0
 10 14  2  0  0  0  0
 11 12  2  0  0  0  0
 11 13  1  0  0  0  0
 14 15  1  0  0  0  0
 15 16  2  0  0  0  0
 16 17  1  0  0  0  0
M  END
