1582
 OpenBabel10141417493D

 19 20  0  0  0  0  0  0  0  0999 V2000
    0.0769    0.6657    0.9287 S   0  0  0  0  0  0  0  0  0  0  0  0
    1.5115    0.8693    0.9708 O   0  0  0  0  0  0  0  0  0  0  0  0
   -0.4656   -0.6784    0.8278 O   0  0  0  0  0  0  0  0  0  0  0  0
   -0.6095    1.5394   -0.3242 N   0  0  0  0  0  0  0  0  0  0  0  0
   -1.4401    3.5811    0.2775 N   0  0  0  0  0  0  0  0  0  0  0  0
    0.7476    3.4220   -0.6662 N   0  0  0  0  0  0  0  0  0  0  0  0
   -2.2371    2.9895    5.9399 N   0  0  0  0  0  0  0  0  0  0  0  0
   -0.6134    1.3784    2.4139 C   0  0  0  0  0  0  0  0  0  0  0  0
    0.0740    2.3817    3.1004 C   0  0  0  0  0  0  0  0  0  0  0  0
   -1.8315    0.8986    2.9029 C   0  0  0  0  0  0  0  0  0  0  0  0
   -0.4142    2.9157   -0.2552 C   0  0  0  0  0  0  0  0  0  0  0  0
   -1.6536    2.3909    4.8155 C   0  0  0  0  0  0  0  0  0  0  0  0
   -0.4685    2.9059    4.2788 C   0  0  0  0  0  0  0  0  0  0  0  0
   -2.3579    1.4283    4.0857 C   0  0  0  0  0  0  0  0  0  0  0  0
   -1.2630    4.9087    0.4215 C   0  0  0  0  0  0  0  0  0  0  0  0
    0.8803    4.7579   -0.5447 C   0  0  0  0  0  0  0  0  0  0  0  0
   -0.1106    5.5503    0.0065 C   0  0  0  0  0  0  0  0  0  0  0  0
   -2.3688    5.6847    1.0690 C   0  0  0  0  0  0  0  0  0  0  0  0
    2.1590    5.3831   -1.0189 C   0  0  0  0  0  0  0  0  0  0  0  0
  1  2  2  0  0  0  0
  1  3  2  0  0  0  0
  1  4  1  0  0  0  0
  1  8  1  0  0  0  0
  4 11  1  0  0  0  0
  5 11  1  0  0  0  0
  5 15  2  0  0  0  0
  6 11  2  0  0  0  0
  6 16  1  0  0  0  0
  7 12  1  0  0  0  0
  8  9  2  0  0  0  0
  8 10  1  0  0  0  0
  9 13  1  0  0  0  0
 10 14  2  0  0  0  0
 12 13  2  0  0  0  0
 12 14  1  0  0  0  0
 15 17  1  0  0  0  0
 15 18  1  0  0  0  0
 16 17  2  0  0  0  0
 16 19  1  0  0  0  0
M  END
