359
 OpenBabel10141417483D

 17 18  0  0  0  0  0  0  0  0999 V2000
    1.2899    0.1595   -0.1051 S   0  0  0  0  0  0  0  0  0  0  0  0
    1.1158   -0.8618   -1.1174 O   0  0  0  0  0  0  0  0  0  0  0  0
    0.8998   -0.1001    1.2674 O   0  0  0  0  0  0  0  0  0  0  0  0
    0.4878    1.5067   -0.6827 N   0  0  0  0  0  0  0  0  0  0  0  0
    7.0847    1.6246   -0.0610 N   0  0  0  0  0  0  0  0  0  0  0  0
    0.6049    3.1599    0.9902 N   0  0  0  0  0  0  0  0  0  0  0  0
    1.7436    3.3519   -1.1017 N   0  0  0  0  0  0  0  0  0  0  0  0
    3.0187    0.5919   -0.0977 C   0  0  0  0  0  0  0  0  0  0  0  0
    3.8023    0.3562   -1.2295 C   0  0  0  0  0  0  0  0  0  0  0  0
    3.5882    1.1295    1.0585 C   0  0  0  0  0  0  0  0  0  0  0  0
    5.7559    1.1830   -0.0380 C   0  0  0  0  0  0  0  0  0  0  0  0
    5.1624    0.6794   -1.2008 C   0  0  0  0  0  0  0  0  0  0  0  0
    4.9475    1.4495    1.0718 C   0  0  0  0  0  0  0  0  0  0  0  0
    0.9499    2.7333   -0.2238 C   0  0  0  0  0  0  0  0  0  0  0  0
    1.0886    4.3724    1.3244 C   0  0  0  0  0  0  0  0  0  0  0  0
    2.2297    4.5386   -0.7007 C   0  0  0  0  0  0  0  0  0  0  0  0
    1.9192    5.1115    0.5104 C   0  0  0  0  0  0  0  0  0  0  0  0
  1  2  2  0  0  0  0
  1  3  2  0  0  0  0
  1  4  1  0  0  0  0
  1  8  1  0  0  0  0
  4 14  1  0  0  0  0
  5 11  1  0  0  0  0
  6 14  1  0  0  0  0
  6 15  2  0  0  0  0
  7 14  2  0  0  0  0
  7 16  1  0  0  0  0
  8  9  2  0  0  0  0
  8 10  1  0  0  0  0
  9 12  1  0  0  0  0
 10 13  2  0  0  0  0
 11 12  2  0  0  0  0
 11 13  1  0  0  0  0
 15 17  1  0  0  0  0
 16 17  2  0  0  0  0
M  END
