1581
 OpenBabel10141417493D

 18 19  0  0  0  0  0  0  0  0999 V2000
    1.2199    0.3326    0.0799 S   0  0  0  0  0  0  0  0  0  0  0  0
    0.6799   -0.0540   -1.2081 O   0  0  0  0  0  0  0  0  0  0  0  0
    0.8100   -0.3589    1.2850 O   0  0  0  0  0  0  0  0  0  0  0  0
    0.9633    1.9672    0.3706 N   0  0  0  0  0  0  0  0  0  0  0  0
    2.7697    3.2259   -0.2636 N   0  0  0  0  0  0  0  0  0  0  0  0
    0.8923    3.0178   -1.7208 N   0  0  0  0  0  0  0  0  0  0  0  0
    7.1763   -0.0595   -0.2146 N   0  0  0  0  0  0  0  0  0  0  0  0
    2.9948    0.1812   -0.0153 C   0  0  0  0  0  0  0  0  0  0  0  0
    3.6384    0.3133   -1.2486 C   0  0  0  0  0  0  0  0  0  0  0  0
    3.7293   -0.0600    1.1471 C   0  0  0  0  0  0  0  0  0  0  0  0
    5.7765   -0.0719   -0.1641 C   0  0  0  0  0  0  0  0  0  0  0  0
    5.0306    0.2249   -1.3091 C   0  0  0  0  0  0  0  0  0  0  0  0
    5.1203   -0.1589    1.0687 C   0  0  0  0  0  0  0  0  0  0  0  0
    1.5398    2.8102   -0.5774 C   0  0  0  0  0  0  0  0  0  0  0  0
    3.4248    3.9105   -1.2235 C   0  0  0  0  0  0  0  0  0  0  0  0
    2.8360    4.2270   -2.4328 C   0  0  0  0  0  0  0  0  0  0  0  0
    1.5554    3.7568   -2.6264 C   0  0  0  0  0  0  0  0  0  0  0  0
    4.8453    4.2986   -0.9436 C   0  0  0  0  0  0  0  0  0  0  0  0
  1  2  2  0  0  0  0
  1  3  2  0  0  0  0
  1  4  1  0  0  0  0
  1  8  1  0  0  0  0
  4 14  1  0  0  0  0
  5 14  1  0  0  0  0
  5 15  2  0  0  0  0
  6 14  2  0  0  0  0
  6 17  1  0  0  0  0
  7 11  1  0  0  0  0
  8  9  2  0  0  0  0
  8 10  1  0  0  0  0
  9 12  1  0  0  0  0
 10 13  2  0  0  0  0
 11 12  2  0  0  0  0
 11 13  1  0  0  0  0
 15 16  1  0  0  0  0
 15 18  1  0  0  0  0
 16 17  2  0  0  0  0
M  END
