259
 OpenBabel10141417473D

 11 11  0  0  0  0  0  0  0  0999 V2000
    1.0147    0.0761   -0.0820 S   0  0  0  0  0  0  0  0  0  0  0  0
    0.6234    0.5734    1.2156 O   0  0  0  0  0  0  0  0  0  0  0  0
    0.5031    0.6228   -1.3167 O   0  0  0  0  0  0  0  0  0  0  0  0
    0.5681   -1.5451   -0.0937 N   0  0  0  0  0  0  0  0  0  0  0  0
    6.9722    0.1923   -0.2863 N   0  0  0  0  0  0  0  0  0  0  0  0
    2.7787    0.0676   -0.1681 C   0  0  0  0  0  0  0  0  0  0  0  0
    3.4385    1.2988   -0.1780 C   0  0  0  0  0  0  0  0  0  0  0  0
    3.5063   -1.1219   -0.2055 C   0  0  0  0  0  0  0  0  0  0  0  0
    5.5747    0.1531   -0.3461 C   0  0  0  0  0  0  0  0  0  0  0  0
    4.8339    1.3344   -0.2443 C   0  0  0  0  0  0  0  0  0  0  0  0
    4.9025   -1.0713   -0.2723 C   0  0  0  0  0  0  0  0  0  0  0  0
  1  2  2  0  0  0  0
  1  3  2  0  0  0  0
  1  4  1  0  0  0  0
  1  6  1  0  0  0  0
  5  9  1  0  0  0  0
  6  7  2  0  0  0  0
  6  8  1  0  0  0  0
  7 10  1  0  0  0  0
  8 11  2  0  0  0  0
  9 10  2  0  0  0  0
  9 11  1  0  0  0  0
M  END
