12894
 OpenBabel10141417483D

 18 19  0  0  0  0  0  0  0  0999 V2000
    1.0039    0.2401    0.0561 S   0  0  0  0  0  0  0  0  0  0  0  0
   -1.0635    1.8145    2.1167 O   0  0  0  0  0  0  0  0  0  0  0  0
    0.4570   -0.1205   -1.2318 O   0  0  0  0  0  0  0  0  0  0  0  0
    0.7653   -0.5593    1.2417 O   0  0  0  0  0  0  0  0  0  0  0  0
    0.6198    1.8625    0.3362 N   0  0  0  0  0  0  0  0  0  0  0  0
   -1.6915    2.1956   -0.0130 N   0  0  0  0  0  0  0  0  0  0  0  0
    6.9071    0.7572   -0.6379 N   0  0  0  0  0  0  0  0  0  0  0  0
    2.7648    0.3690   -0.1459 C   0  0  0  0  0  0  0  0  0  0  0  0
   -0.7055    1.9169    0.8076 C   0  0  0  0  0  0  0  0  0  0  0  0
   -2.4157    2.0127    2.1058 C   0  0  0  0  0  0  0  0  0  0  0  0
   -2.8052    2.1960    0.7955 C   0  0  0  0  0  0  0  0  0  0  0  0
    3.2950    0.5612   -1.4239 C   0  0  0  0  0  0  0  0  0  0  0  0
    3.6019    0.2679    0.9650 C   0  0  0  0  0  0  0  0  0  0  0  0
    4.6782    0.6638   -1.5834 C   0  0  0  0  0  0  0  0  0  0  0  0
    4.9840    0.3710    0.7893 C   0  0  0  0  0  0  0  0  0  0  0  0
    5.5359    0.5212   -0.4881 C   0  0  0  0  0  0  0  0  0  0  0  0
   -3.1055    2.0203    3.4057 C   0  0  0  0  0  0  0  0  0  0  0  0
   -4.1572    2.4114    0.2399 C   0  0  0  0  0  0  0  0  0  0  0  0
  1  3  2  0  0  0  0
  1  4  2  0  0  0  0
  1  5  1  0  0  0  0
  1  8  1  0  0  0  0
  2  9  1  0  0  0  0
  2 10  1  0  0  0  0
  5  9  1  0  0  0  0
  6  9  2  0  0  0  0
  6 11  1  0  0  0  0
  7 16  1  0  0  0  0
  8 12  2  0  0  0  0
  8 13  1  0  0  0  0
 10 11  2  0  0  0  0
 10 17  1  0  0  0  0
 11 18  1  0  0  0  0
 12 14  1  0  0  0  0
 13 15  2  0  0  0  0
 14 16  2  0  0  0  0
 15 16  1  0  0  0  0
M  END
