1138
 OpenBabel10141417523D

 29 32  0  0  1  0  0  0  0  0999 V2000
   -0.3932   -0.2553   -0.1276 S   0  0  3  0  0  0  0  0  0  0  0  0
   -1.6106    4.9548    1.7754 O   0  0  0  0  0  0  0  0  0  0  0  0
   -3.0420    2.9986   -2.2581 O   0  0  0  0  0  0  0  0  0  0  0  0
    0.8439    0.2340   -0.8249 O   0  0  0  0  0  0  0  0  0  0  0  0
   -1.6095    5.6448   -0.4861 N   0  0  0  0  0  0  0  0  0  0  0  0
   -2.0203    5.0596   -1.7027 N   0  0  0  0  0  0  0  0  0  0  0  0
   -2.2979    3.4626   -0.0065 C   0  0  0  0  0  0  0  0  0  0  0  0
   -1.2442    2.3697    0.2021 C   0  0  0  0  0  0  0  0  0  0  0  0
   -1.8294    4.7728    0.5834 C   0  0  0  0  0  0  0  0  0  0  0  0
   -2.4928    3.7638   -1.4736 C   0  0  0  0  0  0  0  0  0  0  0  0
   -1.6781    1.0214   -0.3764 C   0  0  0  0  0  0  0  0  0  0  0  0
   -0.5523    6.5942   -0.4377 C   0  0  0  0  0  0  0  0  0  0  0  0
   -2.6269    5.8594   -2.7174 C   0  0  0  0  0  0  0  0  0  0  0  0
    0.4446    6.6144   -1.4235 C   0  0  0  0  0  0  0  0  0  0  0  0
   -3.1139    7.1394   -2.4118 C   0  0  0  0  0  0  0  0  0  0  0  0
   -0.5083    7.5394    0.5934 C   0  0  0  0  0  0  0  0  0  0  0  0
   -2.7682    5.3818   -4.0263 C   0  0  0  0  0  0  0  0  0  0  0  0
   -1.1102   -1.4925   -1.2432 C   0  0  0  0  0  0  0  0  0  0  0  0
    1.4828    7.5472   -1.3607 C   0  0  0  0  0  0  0  0  0  0  0  0
   -3.7437    7.9177   -3.3820 C   0  0  0  0  0  0  0  0  0  0  0  0
    0.5098    8.4955    0.6329 C   0  0  0  0  0  0  0  0  0  0  0  0
   -3.3789    6.1734   -5.0051 C   0  0  0  0  0  0  0  0  0  0  0  0
    1.5098    8.4927   -0.3378 C   0  0  0  0  0  0  0  0  0  0  0  0
   -3.8722    7.4362   -4.6802 C   0  0  0  0  0  0  0  0  0  0  0  0
   -1.8549   -2.5532   -0.7173 C   0  0  0  0  0  0  0  0  0  0  0  0
   -0.9204   -1.4043   -2.6277 C   0  0  0  0  0  0  0  0  0  0  0  0
   -2.4044   -3.5146   -1.5705 C   0  0  0  0  0  0  0  0  0  0  0  0
   -1.4823   -2.3576   -3.4789 C   0  0  0  0  0  0  0  0  0  0  0  0
   -2.2218   -3.4138   -2.9498 C   0  0  0  0  0  0  0  0  0  0  0  0
  1  4  2  0  0  0  0
  1 11  1  0  0  0  0
  1 18  1  0  0  0  0
  2  9  2  0  0  0  0
  3 10  2  0  0  0  0
  5  6  1  0  0  0  0
  5  9  1  0  0  0  0
  5 12  1  0  0  0  0
  6 10  1  0  0  0  0
  6 13  1  0  0  0  0
  7  8  1  0  0  0  0
  7  9  1  0  0  0  0
  7 10  1  0  0  0  0
  8 11  1  0  0  0  0
 12 14  2  0  0  0  0
 12 16  1  0  0  0  0
 13 15  2  0  0  0  0
 13 17  1  0  0  0  0
 14 19  1  0  0  0  0
 15 20  1  0  0  0  0
 16 21  2  0  0  0  0
 17 22  2  0  0  0  0
 18 25  2  0  0  0  0
 18 26  1  0  0  0  0
 19 23  2  0  0  0  0
 20 24  2  0  0  0  0
 21 23  1  0  0  0  0
 22 24  1  0  0  0  0
 25 27  1  0  0  0  0
 26 28  2  0  0  0  0
 27 29  2  0  0  0  0
 28 29  1  0  0  0  0
M  END
