1015
 OpenBabel10141417493D

 17 18  0  0  0  0  0  0  0  0999 V2000
    1.4502    0.5772    0.2599 S   0  0  0  0  0  0  0  0  0  0  0  0
   -1.4275    4.0492    1.1287 O   0  0  0  0  0  0  0  0  0  0  0  0
    0.8042   -0.4433   -0.5439 O   0  0  0  0  0  0  0  0  0  0  0  0
    1.3141    0.6144    1.6957 O   0  0  0  0  0  0  0  0  0  0  0  0
    0.9966    2.0621   -0.4231 N   0  0  0  0  0  0  0  0  0  0  0  0
   -1.0358    3.1187    0.1806 N   0  0  0  0  0  0  0  0  0  0  0  0
    7.2977    0.3286   -0.9306 N   0  0  0  0  0  0  0  0  0  0  0  0
    3.1864    0.5379   -0.1155 C   0  0  0  0  0  0  0  0  0  0  0  0
    4.1023    1.0690    0.7956 C   0  0  0  0  0  0  0  0  0  0  0  0
    3.6326   -0.0980   -1.2751 C   0  0  0  0  0  0  0  0  0  0  0  0
    0.2683    2.9313    0.3845 C   0  0  0  0  0  0  0  0  0  0  0  0
    5.9252    0.4698   -0.6985 C   0  0  0  0  0  0  0  0  0  0  0  0
    5.4688    1.0171    0.5049 C   0  0  0  0  0  0  0  0  0  0  0  0
    5.0017   -0.1422   -1.5521 C   0  0  0  0  0  0  0  0  0  0  0  0
    0.7683    3.7728    1.3958 C   0  0  0  0  0  0  0  0  0  0  0  0
   -0.3394    4.4555    1.8381 C   0  0  0  0  0  0  0  0  0  0  0  0
   -0.5717    5.4922    2.8596 C   0  0  0  0  0  0  0  0  0  0  0  0
  1  3  2  0  0  0  0
  1  4  2  0  0  0  0
  1  5  1  0  0  0  0
  1  8  1  0  0  0  0
  2  6  1  0  0  0  0
  2 16  1  0  0  0  0
  5 11  1  0  0  0  0
  6 11  2  0  0  0  0
  7 12  1  0  0  0  0
  8  9  2  0  0  0  0
  8 10  1  0  0  0  0
  9 13  1  0  0  0  0
 10 14  2  0  0  0  0
 11 15  1  0  0  0  0
 12 13  2  0  0  0  0
 12 14  1  0  0  0  0
 15 16  2  0  0  0  0
 16 17  1  0  0  0  0
M  END
