391
 OpenBabel10141417513D

 23 24  0  0  1  0  0  0  0  0999 V2000
    7.5104    1.6803   -2.2506 S   0  0  0  0  0  0  0  0  0  0  0  0
    7.2300   -3.4442   -0.8480 O   0  0  0  0  0  0  0  0  0  0  0  0
    4.4862   -1.7824    1.5210 O   0  0  0  0  0  0  0  0  0  0  0  0
    7.1700    1.2693   -3.5982 O   0  0  0  0  0  0  0  0  0  0  0  0
    7.4277    3.0477   -1.8148 O   0  0  0  0  0  0  0  0  0  0  0  0
    4.6291   -7.1626   -2.0217 N   0  0  0  0  0  0  0  0  0  0  0  0
    5.0370   -3.8065   -0.2471 N   0  0  0  0  0  0  0  0  0  0  0  0
    9.1025    1.2206   -2.0011 N   0  0  0  0  0  0  0  0  0  0  0  0
    4.6352   -5.6899   -1.8528 C   0  0  3  0  0  0  0  0  0  0  0  0
    5.5792   -5.1815   -2.9495 C   0  0  0  0  0  0  0  0  0  0  0  0
    6.2942   -6.4097   -3.4645 C   0  0  0  0  0  0  0  0  0  0  0  0
    5.2356   -7.4743   -3.3208 C   0  0  0  0  0  0  0  0  0  0  0  0
    5.0484   -5.2552   -0.4255 C   0  0  0  0  0  0  0  0  0  0  0  0
    3.3312   -7.8125   -1.8258 C   0  0  0  0  0  0  0  0  0  0  0  0
    2.2153   -7.3880   -2.7814 C   0  0  0  0  0  0  0  0  0  0  0  0
    6.1411   -3.0150   -0.4804 C   0  0  0  0  0  0  0  0  0  0  0  0
    5.9739   -1.5452   -0.3280 C   0  0  0  0  0  0  0  0  0  0  0  0
    6.6970   -0.7346   -1.2229 C   0  0  0  0  0  0  0  0  0  0  0  0
    5.1685   -0.9567    0.6636 C   0  0  0  0  0  0  0  0  0  0  0  0
    6.6228    0.6531   -1.1194 C   0  0  0  0  0  0  0  0  0  0  0  0
    5.1297    0.4406    0.7628 C   0  0  0  0  0  0  0  0  0  0  0  0
    5.8430    1.2461   -0.1275 C   0  0  0  0  0  0  0  0  0  0  0  0
    3.3838   -1.1951    2.2073 C   0  0  0  0  0  0  0  0  0  0  0  0
  1  4  2  0  0  0  0
  1  5  2  0  0  0  0
  1  8  1  0  0  0  0
  1 20  1  0  0  0  0
  2 16  2  0  0  0  0
  3 19  1  0  0  0  0
  3 23  1  0  0  0  0
  6  9  1  0  0  0  0
  6 12  1  0  0  0  0
  6 14  1  0  0  0  0
  7 13  1  0  0  0  0
  7 16  1  0  0  0  0
  9 10  1  0  0  0  0
  9 13  1  0  0  0  0
 10 11  1  0  0  0  0
 11 12  1  0  0  0  0
 14 15  1  0  0  0  0
 16 17  1  0  0  0  0
 17 18  1  0  0  0  0
 17 19  2  0  0  0  0
 18 20  2  0  0  0  0
 19 21  1  0  0  0  0
 20 22  1  0  0  0  0
 21 22  2  0  0  0  0
M  END
