669
 OpenBabel10141417523D

 20 21  0  0  0  0  0  0  0  0999 V2000
    3.8401    0.9167    1.1247 S   0  0  0  0  0  0  0  0  0  0  0  0
    3.9134    2.2676    0.6178 O   0  0  0  0  0  0  0  0  0  0  0  0
    3.3784    0.6767    2.4789 O   0  0  0  0  0  0  0  0  0  0  0  0
    4.7680   -0.2426   -5.3108 N   0  0  0  0  0  0  0  0  0  0  0  0
    3.2664    5.4336   -4.5096 N   0  0  0  0  0  0  0  0  0  0  0  0
    5.3993    0.3076    1.0220 N   0  0  0  0  0  0  0  0  0  0  0  0
    4.5529    1.8038   -4.4598 C   0  0  0  0  0  0  0  0  0  0  0  0
    4.1596    0.8475   -3.4715 C   0  0  0  0  0  0  0  0  0  0  0  0
    4.6000    3.2900   -4.2847 C   0  0  0  0  0  0  0  0  0  0  0  0
    4.3644   -0.4201   -4.0079 C   0  0  0  0  0  0  0  0  0  0  0  0
    3.4596   -0.2023   -1.3781 C   0  0  0  0  0  0  0  0  0  0  0  0
    3.2679    3.9623   -4.6536 C   0  0  0  0  0  0  0  0  0  0  0  0
    3.6615    0.9504   -2.1570 C   0  0  0  0  0  0  0  0  0  0  0  0
    4.9070    1.0911   -5.5870 C   0  0  0  0  0  0  0  0  0  0  0  0
    2.8681   -0.1125    0.0074 C   0  0  0  0  0  0  0  0  0  0  0  0
    4.1621   -1.5906   -3.2705 C   0  0  0  0  0  0  0  0  0  0  0  0
    3.7275   -1.4572   -1.9448 C   0  0  0  0  0  0  0  0  0  0  0  0
    1.9640    5.9659   -4.9240 C   0  0  0  0  0  0  0  0  0  0  0  0
    3.5527    5.8539   -3.1363 C   0  0  0  0  0  0  0  0  0  0  0  0
    5.7436   -0.8779    1.8006 C   0  0  0  0  0  0  0  0  0  0  0  0
  1  2  2  0  0  0  0
  1  3  2  0  0  0  0
  1  6  1  0  0  0  0
  1 15  1  0  0  0  0
  4 10  1  0  0  0  0
  4 14  1  0  0  0  0
  5 12  1  0  0  0  0
  5 18  1  0  0  0  0
  5 19  1  0  0  0  0
  6 20  1  0  0  0  0
  7  8  1  0  0  0  0
  7  9  1  0  0  0  0
  7 14  2  0  0  0  0
  8 10  2  0  0  0  0
  8 13  1  0  0  0  0
  9 12  1  0  0  0  0
 10 16  1  0  0  0  0
 11 13  2  0  0  0  0
 11 15  1  0  0  0  0
 11 17  1  0  0  0  0
 16 17  2  0  0  0  0
M  END
