1268
 OpenBabel10141417503D

 29 31  0  0  0  0  0  0  0  0999 V2000
    0.5045   -1.6171   -1.5781 F   0  0  0  0  0  0  0  0  0  0  0  0
    3.9543    8.1851    0.8143 O   0  0  0  0  0  0  0  0  0  0  0  0
    6.5386    2.1877   -1.6494 O   0  0  0  0  0  0  0  0  0  0  0  0
    8.5063    9.1202    2.8445 N   0  0  0  0  0  0  0  0  0  0  0  0
    5.6235    4.0106   -0.0771 N   0  0  0  0  0  0  0  0  0  0  0  0
    6.2122    8.1172    1.0298 N   0  0  0  0  0  0  0  0  0  0  0  0
    5.4671    0.3711   -2.5768 N   0  0  0  0  0  0  0  0  0  0  0  0
    7.7984    9.9003    1.7894 C   0  0  0  0  0  0  0  0  0  0  0  0
    5.0173    6.1132    0.3494 C   0  0  0  0  0  0  0  0  0  0  0  0
    3.8457    5.3149    0.0133 C   0  0  0  0  0  0  0  0  0  0  0  0
    4.2715    4.0212   -0.2752 C   0  0  0  0  0  0  0  0  0  0  0  0
    6.3353    9.4889    1.4722 C   0  0  0  0  0  0  0  0  0  0  0  0
    6.1032    5.2482    0.2562 C   0  0  0  0  0  0  0  0  0  0  0  0
    9.8843    9.6327    3.0310 C   0  0  0  0  0  0  0  0  0  0  0  0
    7.7486    9.0772    4.1092 C   0  0  0  0  0  0  0  0  0  0  0  0
    4.9975    7.5390    0.7400 C   0  0  0  0  0  0  0  0  0  0  0  0
    4.1320    1.7657   -1.3016 C   0  0  0  0  0  0  0  0  0  0  0  0
    3.6073    2.8118   -0.6329 C   0  0  0  0  0  0  0  0  0  0  0  0
    3.3672    0.5604   -1.6737 C   0  0  0  0  0  0  0  0  0  0  0  0
    2.4476    5.8447   -0.0012 C   0  0  0  0  0  0  0  0  0  0  0  0
    4.2293   -0.2348   -2.4419 C   0  0  0  0  0  0  0  0  0  0  0  0
    7.5663    5.3999    0.4650 C   0  0  0  0  0  0  0  0  0  0  0  0
    5.5364    1.5499   -1.8499 C   0  0  0  0  0  0  0  0  0  0  0  0
   10.7423    8.8855    4.0623 C   0  0  0  0  0  0  0  0  0  0  0  0
    7.4791   10.4194    4.7884 C   0  0  0  0  0  0  0  0  0  0  0  0
    2.0928    0.1139   -1.3813 C   0  0  0  0  0  0  0  0  0  0  0  0
    3.8773   -1.4753   -2.9312 C   0  0  0  0  0  0  0  0  0  0  0  0
    1.7241   -1.1430   -1.8634 C   0  0  0  0  0  0  0  0  0  0  0  0
    2.5981   -1.9350   -2.6249 C   0  0  0  0  0  0  0  0  0  0  0  0
  1 28  1  0  0  0  0
  2 16  2  0  0  0  0
  3 23  2  0  0  0  0
  4  8  1  0  0  0  0
  4 14  1  0  0  0  0
  4 15  1  0  0  0  0
  5 11  1  0  0  0  0
  5 13  1  0  0  0  0
  6 12  1  0  0  0  0
  6 16  1  0  0  0  0
  7 21  1  0  0  0  0
  7 23  1  0  0  0  0
  8 12  1  0  0  0  0
  9 10  1  0  0  0  0
  9 13  2  0  0  0  0
  9 16  1  0  0  0  0
 10 11  2  0  0  0  0
 10 20  1  0  0  0  0
 11 18  1  0  0  0  0
 13 22  1  0  0  0  0
 14 24  1  0  0  0  0
 15 25  1  0  0  0  0
 17 18  2  0  0  0  0
 17 19  1  0  0  0  0
 17 23  1  0  0  0  0
 19 21  2  0  0  0  0
 19 26  1  0  0  0  0
 21 27  1  0  0  0  0
 26 28  2  0  0  0  0
 27 29  2  0  0  0  0
 28 29  1  0  0  0  0
M  END
