870
 OpenBabel10141417513D

 18 19  0  0  1  0  0  0  0  0999 V2000
    0.0996   -0.3082   -0.2405 S   0  0  0  0  0  0  0  0  0  0  0  0
   -7.8544   -4.2296   -3.0785 O   0  0  0  0  0  0  0  0  0  0  0  0
   -8.6660   -2.7636   -1.6093 O   0  0  0  0  0  0  0  0  0  0  0  0
   -0.9068   -3.0982    0.4470 O   0  0  0  0  0  0  0  0  0  0  0  0
   -7.0969   -4.4866   -0.8251 C   0  0  3  0  0  0  0  0  0  0  0  0
   -5.6919   -3.9169   -0.6828 C   0  0  0  0  0  0  0  0  0  0  0  0
   -5.4301   -2.5404   -0.7523 C   0  0  0  0  0  0  0  0  0  0  0  0
   -4.6174   -4.7829   -0.4281 C   0  0  0  0  0  0  0  0  0  0  0  0
   -3.0492   -2.9156   -0.4276 C   0  0  0  0  0  0  0  0  0  0  0  0
   -7.8095   -4.5675    0.5258 C   0  0  0  0  0  0  0  0  0  0  0  0
   -4.1249   -2.0447   -0.6230 C   0  0  0  0  0  0  0  0  0  0  0  0
   -3.3126   -4.2883   -0.2945 C   0  0  0  0  0  0  0  0  0  0  0  0
   -7.9562   -3.7366   -1.8273 C   0  0  0  0  0  0  0  0  0  0  0  0
   -1.6424   -2.4210   -0.2735 C   0  0  0  0  0  0  0  0  0  0  0  0
   -1.1922   -1.2014   -0.9509 C   0  0  0  0  0  0  0  0  0  0  0  0
   -1.5967   -0.6062   -2.1358 C   0  0  0  0  0  0  0  0  0  0  0  0
   -0.8603    0.5820   -2.4409 C   0  0  0  0  0  0  0  0  0  0  0  0
    0.0827    0.8656   -1.4809 C   0  0  0  0  0  0  0  0  0  0  0  0
  1 15  1  0  0  0  0
  1 18  1  0  0  0  0
  2 13  1  0  0  0  0
  3 13  2  0  0  0  0
  4 14  2  0  0  0  0
  5  6  1  0  0  0  0
  5 10  1  0  0  0  0
  5 13  1  0  0  0  0
  6  7  2  0  0  0  0
  6  8  1  0  0  0  0
  7 11  1  0  0  0  0
  8 12  2  0  0  0  0
  9 11  2  0  0  0  0
  9 12  1  0  0  0  0
  9 14  1  0  0  0  0
 14 15  1  0  0  0  0
 15 16  2  0  0  0  0
 16 17  1  0  0  0  0
 17 18  2  0  0  0  0
M  END
