
 OpenBabel10141417503D

 86 93  0  0  0  0  0  0  0  0999 V2000
   -1.6661   -4.1706   -2.8035 S   0  0  0  0  0  0  0  0  0  0  0  0
    7.6916   -9.7310   -7.4343 S   0  0  0  0  0  0  0  0  0  0  0  0
    1.8256   -8.8615   -5.2557 S   0  0  0  0  0  0  0  0  0  0  0  0
    7.1897  -10.4518  -13.7305 S   0  0  0  0  0  0  0  0  0  0  0  0
   -3.2595   -7.3490   -7.0691 S   0  0  0  0  0  0  0  0  0  0  0  0
    5.4837   -5.8539  -10.5596 S   0  0  0  0  0  0  0  0  0  0  0  0
   -2.7400   -3.3330   -3.6621 O   0  0  0  0  0  0  0  0  0  0  0  0
    9.1490   -9.3238   -8.0330 O   0  0  0  0  0  0  0  0  0  0  0  0
    1.2985   -8.3690   -6.6760 O   0  0  0  0  0  0  0  0  0  0  0  0
    6.4780  -11.5435  -14.6818 O   0  0  0  0  0  0  0  0  0  0  0  0
   -2.2036   -4.3997   -1.4860 O   0  0  0  0  0  0  0  0  0  0  0  0
   -0.3961   -3.5143   -3.0243 O   0  0  0  0  0  0  0  0  0  0  0  0
    7.4111   -8.8688   -6.3114 O   0  0  0  0  0  0  0  0  0  0  0  0
    7.7639  -11.1539   -7.3151 O   0  0  0  0  0  0  0  0  0  0  0  0
   -4.2994   -8.4994   -6.6278 O   0  0  0  0  0  0  0  0  0  0  0  0
    3.8963   -6.0657  -10.3386 O   0  0  0  0  0  0  0  0  0  0  0  0
    3.1740   -8.7061   -5.1206 O   0  0  0  0  0  0  0  0  0  0  0  0
    1.2323  -10.2228   -5.4398 O   0  0  0  0  0  0  0  0  0  0  0  0
    6.7365   -9.1591  -14.1834 O   0  0  0  0  0  0  0  0  0  0  0  0
    8.5911  -10.8106  -13.7210 O   0  0  0  0  0  0  0  0  0  0  0  0
   -4.1061   -6.1969   -7.2744 O   0  0  0  0  0  0  0  0  0  0  0  0
   -2.4673   -7.9162   -8.1396 O   0  0  0  0  0  0  0  0  0  0  0  0
    5.9168   -4.9894   -9.4862 O   0  0  0  0  0  0  0  0  0  0  0  0
    5.6812   -5.5068  -11.9474 O   0  0  0  0  0  0  0  0  0  0  0  0
   -2.6324   -7.1921    1.3610 O   0  0  0  0  0  0  0  0  0  0  0  0
    6.4776  -13.5153   -7.6778 O   0  0  0  0  0  0  0  0  0  0  0  0
   -5.5440  -12.8309    2.7244 O   0  0  0  0  0  0  0  0  0  0  0  0
    0.1578  -13.5012   -5.1770 O   0  0  0  0  0  0  0  0  0  0  0  0
   -3.5283   -7.3167   -1.3871 O   0  0  0  0  0  0  0  0  0  0  0  0
   -1.1360   -6.8420   -0.3895 N   0  0  0  0  0  0  0  0  0  0  0  0
    5.0928  -11.7781   -8.3301 N   0  0  0  0  0  0  0  0  0  0  0  0
   -3.3905  -12.2214    2.3193 N   0  0  0  0  0  0  0  0  0  0  0  0
    1.6468  -11.9503   -4.1971 N   0  0  0  0  0  0  0  0  0  0  0  0
   -3.9909   -9.5343   -1.8620 N   0  0  0  0  0  0  0  0  0  0  0  0
   -2.2565   -8.6059   -2.7822 N   0  0  0  0  0  0  0  0  0  0  0  0
   -0.6120   -6.6169   -3.0613 C   0  0  0  0  0  0  0  0  0  0  0  0
    6.2828  -10.1991   -9.7777 C   0  0  0  0  0  0  0  0  0  0  0  0
   -0.1606   -7.4347   -4.1339 C   0  0  0  0  0  0  0  0  0  0  0  0
    6.3995   -9.7725  -11.1153 C   0  0  0  0  0  0  0  0  0  0  0  0
   -1.5679   -5.7154   -3.6208 C   0  0  0  0  0  0  0  0  0  0  0  0
    6.5996   -9.2501   -8.7762 C   0  0  0  0  0  0  0  0  0  0  0  0
    0.9710   -8.1980   -3.8486 C   0  0  0  0  0  0  0  0  0  0  0  0
    6.5455  -10.7864  -12.1023 C   0  0  0  0  0  0  0  0  0  0  0  0
   -0.2191   -7.0032   -1.5647 C   0  0  0  0  0  0  0  0  0  0  0  0
    5.8090  -11.5181   -9.5333 C   0  0  0  0  0  0  0  0  0  0  0  0
   -1.0124   -7.6890   -5.3594 C   0  0  0  0  0  0  0  0  0  0  0  0
    6.2636   -8.3763  -11.3426 C   0  0  0  0  0  0  0  0  0  0  0  0
   -2.1474   -6.9687   -5.6747 C   0  0  0  0  0  0  0  0  0  0  0  0
    6.1322   -7.4773  -10.2783 C   0  0  0  0  0  0  0  0  0  0  0  0
   -2.3076   -5.8665   -4.8691 C   0  0  0  0  0  0  0  0  0  0  0  0
    6.4575   -7.8809   -8.9970 C   0  0  0  0  0  0  0  0  0  0  0  0
    1.4184   -8.4875   -2.5011 C   0  0  0  0  0  0  0  0  0  0  0  0
    6.2528  -12.1265  -11.8111 C   0  0  0  0  0  0  0  0  0  0  0  0
    0.8237   -7.8910   -1.3742 C   0  0  0  0  0  0  0  0  0  0  0  0
    5.7792  -12.4672  -10.5522 C   0  0  0  0  0  0  0  0  0  0  0  0
   -1.7910   -7.7157    0.6131 C   0  0  0  0  0  0  0  0  0  0  0  0
    5.4921  -12.8090   -7.4903 C   0  0  0  0  0  0  0  0  0  0  0  0
   -1.6799   -9.2375    0.8176 C   0  0  0  0  0  0  0  0  0  0  0  0
    4.5743  -13.0818   -6.3340 C   0  0  0  0  0  0  0  0  0  0  0  0
   -2.4546  -10.0139    1.7200 C   0  0  0  0  0  0  0  0  0  0  0  0
    3.7324  -12.1216   -5.7227 C   0  0  0  0  0  0  0  0  0  0  0  0
   -2.3708  -11.4666    1.7164 C   0  0  0  0  0  0  0  0  0  0  0  0
    2.8514  -12.5619   -4.6961 C   0  0  0  0  0  0  0  0  0  0  0  0
   -0.8911   -9.9981   -0.0163 C   0  0  0  0  0  0  0  0  0  0  0  0
    4.5013  -14.4086   -5.9021 C   0  0  0  0  0  0  0  0  0  0  0  0
   -1.5050  -12.1601    0.8381 C   0  0  0  0  0  0  0  0  0  0  0  0
    3.1342  -13.7373   -4.0488 C   0  0  0  0  0  0  0  0  0  0  0  0
   -0.7567  -11.3823   -0.0166 C   0  0  0  0  0  0  0  0  0  0  0  0
    3.8212  -14.7191   -4.7315 C   0  0  0  0  0  0  0  0  0  0  0  0
   -1.4315  -13.6413    0.5620 C   0  0  0  0  0  0  0  0  0  0  0  0
    2.7188  -13.9021   -2.6238 C   0  0  0  0  0  0  0  0  0  0  0  0
   -4.7560  -12.1835    2.0384 C   0  0  0  0  0  0  0  0  0  0  0  0
    0.3458  -12.3823   -4.7004 C   0  0  0  0  0  0  0  0  0  0  0  0
   -5.2874  -11.3432    0.9220 C   0  0  0  0  0  0  0  0  0  0  0  0
   -0.9050  -11.4447   -4.6900 C   0  0  0  0  0  0  0  0  0  0  0  0
   -4.4697  -10.8145   -0.0347 C   0  0  0  0  0  0  0  0  0  0  0  0
   -1.0385  -10.4312   -3.7709 C   0  0  0  0  0  0  0  0  0  0  0  0
   -4.8685   -9.8165   -0.8802 C   0  0  0  0  0  0  0  0  0  0  0  0
   -2.1918   -9.6335   -3.7064 C   0  0  0  0  0  0  0  0  0  0  0  0
   -6.6292  -11.0332    0.7726 C   0  0  0  0  0  0  0  0  0  0  0  0
   -1.9981  -11.5661   -5.5747 C   0  0  0  0  0  0  0  0  0  0  0  0
   -6.1420   -9.3750   -0.9555 C   0  0  0  0  0  0  0  0  0  0  0  0
   -3.2751   -9.7849   -4.5287 C   0  0  0  0  0  0  0  0  0  0  0  0
   -7.0421  -10.0400   -0.1474 C   0  0  0  0  0  0  0  0  0  0  0  0
   -3.1706  -10.7662   -5.4781 C   0  0  0  0  0  0  0  0  0  0  0  0
   -3.3341   -8.3590   -1.9823 C   0  0  0  0  0  0  0  0  0  0  0  0
  1  7  1  0  0  0  0
  1 11  2  0  0  0  0
  1 12  2  0  0  0  0
  1 40  1  0  0  0  0
  2  8  1  0  0  0  0
  2 13  2  0  0  0  0
  2 14  2  0  0  0  0
  2 41  1  0  0  0  0
  3  9  1  0  0  0  0
  3 17  2  0  0  0  0
  3 18  2  0  0  0  0
  3 42  1  0  0  0  0
  4 10  1  0  0  0  0
  4 19  2  0  0  0  0
  4 20  2  0  0  0  0
  4 43  1  0  0  0  0
  5 15  1  0  0  0  0
  5 21  2  0  0  0  0
  5 22  2  0  0  0  0
  5 48  1  0  0  0  0
  6 16  1  0  0  0  0
  6 23  2  0  0  0  0
  6 24  2  0  0  0  0
  6 49  1  0  0  0  0
 25 56  2  0  0  0  0
 26 57  2  0  0  0  0
 27 72  2  0  0  0  0
 28 73  2  0  0  0  0
 29 86  2  0  0  0  0
 30 44  1  0  0  0  0
 30 56  1  0  0  0  0
 31 45  1  0  0  0  0
 31 57  1  0  0  0  0
 32 62  1  0  0  0  0
 32 72  1  0  0  0  0
 33 63  1  0  0  0  0
 33 73  1  0  0  0  0
 34 78  1  0  0  0  0
 34 86  1  0  0  0  0
 35 79  1  0  0  0  0
 35 86  1  0  0  0  0
 36 38  1  0  0  0  0
 36 40  1  0  0  0  0
 36 44  2  0  0  0  0
 37 39  1  0  0  0  0
 37 41  1  0  0  0  0
 37 45  2  0  0  0  0
 38 42  2  0  0  0  0
 38 46  1  0  0  0  0
 39 43  2  0  0  0  0
 39 47  1  0  0  0  0
 40 50  2  0  0  0  0
 41 51  2  0  0  0  0
 42 52  1  0  0  0  0
 43 53  1  0  0  0  0
 44 54  1  0  0  0  0
 45 55  1  0  0  0  0
 46 48  2  0  0  0  0
 47 49  2  0  0  0  0
 48 50  1  0  0  0  0
 49 51  1  0  0  0  0
 52 54  2  0  0  0  0
 53 55  2  0  0  0  0
 56 58  1  0  0  0  0
 57 59  1  0  0  0  0
 58 60  2  0  0  0  0
 58 64  1  0  0  0  0
 59 61  2  0  0  0  0
 59 65  1  0  0  0  0
 60 62  1  0  0  0  0
 61 63  1  0  0  0  0
 62 66  2  0  0  0  0
 63 67  2  0  0  0  0
 64 68  2  0  0  0  0
 65 69  2  0  0  0  0
 66 68  1  0  0  0  0
 66 70  1  0  0  0  0
 67 69  1  0  0  0  0
 67 71  1  0  0  0  0
 72 74  1  0  0  0  0
 73 75  1  0  0  0  0
 74 76  2  0  0  0  0
 74 80  1  0  0  0  0
 75 77  2  0  0  0  0
 75 81  1  0  0  0  0
 76 78  1  0  0  0  0
 77 79  1  0  0  0  0
 78 82  2  0  0  0  0
 79 83  2  0  0  0  0
 80 84  2  0  0  0  0
 81 85  2  0  0  0  0
 82 84  1  0  0  0  0
 83 85  1  0  0  0  0
M  END
