820
 OpenBabel10141417493D

 29 34  0  0  1  0  0  0  0  0999 V2000
    1.1466    0.4009    1.3626 O   0  0  0  0  0  0  0  0  0  0  0  0
    5.5413   -0.5929   -1.5511 O   0  0  0  0  0  0  0  0  0  0  0  0
   10.1403    1.3774   -1.1369 O   0  0  0  0  0  0  0  0  0  0  0  0
   10.4493    1.7212    1.2310 O   0  0  0  0  0  0  0  0  0  0  0  0
    4.3360    0.9758   -0.3323 N   0  0  0  0  0  0  0  0  0  0  0  0
    5.1353    4.5694   -1.1010 N   0  0  0  0  0  0  0  0  0  0  0  0
    2.4542   -1.1248    0.2471 N   0  0  0  0  0  0  0  0  0  0  0  0
    2.9016    1.2800   -0.0796 C   0  0  2  0  0  0  0  0  0  0  0  0
    5.2157    2.0375   -0.8770 C   0  0  1  0  0  0  0  0  0  0  0  0
    2.6668    2.6040    0.6845 C   0  0  0  0  0  0  0  0  0  0  0  0
    4.6102    3.3892   -0.6430 C   0  0  0  0  0  0  0  0  0  0  0  0
    3.4630    3.6835    0.0580 C   0  0  0  0  0  0  0  0  0  0  0  0
    2.1276    0.1664    0.6576 C   0  0  0  0  0  0  0  0  0  0  0  0
    3.2767    5.0896    0.0310 C   0  0  0  0  0  0  0  0  0  0  0  0
    4.6129   -0.3177   -0.7933 C   0  0  0  0  0  0  0  0  0  0  0  0
    6.6124    1.9597   -0.2619 C   0  0  0  0  0  0  0  0  0  0  0  0
    3.8431   -1.4168   -0.0658 C   0  0  0  0  0  0  0  0  0  0  0  0
    4.3392    5.6225   -0.7033 C   0  0  0  0  0  0  0  0  0  0  0  0
    2.3112    5.9673    0.5604 C   0  0  0  0  0  0  0  0  0  0  0  0
    7.7244    1.6895   -1.0803 C   0  0  0  0  0  0  0  0  0  0  0  0
    6.8098    2.1567    1.1290 C   0  0  0  0  0  0  0  0  0  0  0  0
    4.4824    6.9961   -0.9325 C   0  0  0  0  0  0  0  0  0  0  0  0
    1.6747   -2.2233    0.7880 C   0  0  0  0  0  0  0  0  0  0  0  0
    8.9698    1.6291   -0.4916 C   0  0  0  0  0  0  0  0  0  0  0  0
    2.4401    7.3432    0.3383 C   0  0  0  0  0  0  0  0  0  0  0  0
    8.0868    2.0926    1.6956 C   0  0  0  0  0  0  0  0  0  0  0  0
    3.5106    7.8472   -0.3973 C   0  0  0  0  0  0  0  0  0  0  0  0
    9.1460    1.8254    0.8573 C   0  0  0  0  0  0  0  0  0  0  0  0
   11.0698    1.4129   -0.0344 C   0  0  0  0  0  0  0  0  0  0  0  0
  1 13  2  0  0  0  0
  2 15  2  0  0  0  0
  3 24  1  0  0  0  0
  3 29  1  0  0  0  0
  4 28  1  0  0  0  0
  4 29  1  0  0  0  0
  5  9  1  0  0  0  0
  5 15  1  0  0  0  0
  6 11  1  0  0  0  0
  6 18  1  0  0  0  0
  7 13  1  0  0  0  0
  7 17  1  0  0  0  0
  7 23  1  0  0  0  0
  8  5  1  1  0  0  0
  8 10  1  0  0  0  0
  8 13  1  0  0  0  0
  9 11  1  0  0  0  0
  9 16  1  1  0  0  0
 10 12  1  0  0  0  0
 11 12  2  0  0  0  0
 12 14  1  0  0  0  0
 14 18  1  0  0  0  0
 14 19  2  0  0  0  0
 15 17  1  0  0  0  0
 16 20  2  0  0  0  0
 16 21  1  0  0  0  0
 18 22  2  0  0  0  0
 19 25  1  0  0  0  0
 20 24  1  0  0  0  0
 21 26  2  0  0  0  0
 22 27  1  0  0  0  0
 24 28  2  0  0  0  0
 25 27  2  0  0  0  0
 26 28  1  0  0  0  0
M  END
