
 OpenBabel10141417543D

 26 28  0  0  0  0  0  0  0  0999 V2000
    3.2441    4.1670    0.5205 O   0  0  0  0  0  0  0  0  0  0  0  0
    6.5262    1.2477    5.6457 O   0  0  0  0  0  0  0  0  0  0  0  0
    6.9181   -0.6854    4.5720 O   0  0  0  0  0  0  0  0  0  0  0  0
    3.2482    2.2589   -0.8255 N   0  0  0  0  0  0  0  0  0  0  0  0
    1.4129    6.0635   -3.4931 C   0  0  0  0  0  0  0  0  0  0  0  0
   -0.0318    4.0110   -5.2451 C   0  0  0  0  0  0  0  0  0  0  0  0
    0.7716    6.3914   -4.8582 C   0  0  0  0  0  0  0  0  0  0  0  0
   -0.4259    5.5030   -5.1494 C   0  0  0  0  0  0  0  0  0  0  0  0
    1.5593    4.5500   -3.2897 C   0  0  0  0  0  0  0  0  0  0  0  0
    0.9034    3.5994   -4.1017 C   0  0  0  0  0  0  0  0  0  0  0  0
    2.7843    6.7817   -3.4683 C   0  0  0  0  0  0  0  0  0  0  0  0
    0.5452    6.6349   -2.3491 C   0  0  0  0  0  0  0  0  0  0  0  0
   -1.3557    3.2106   -5.2217 C   0  0  0  0  0  0  0  0  0  0  0  0
    0.6818    3.7378   -6.5860 C   0  0  0  0  0  0  0  0  0  0  0  0
    2.3454    4.0884   -2.2111 C   0  0  0  0  0  0  0  0  0  0  0  0
    1.1535    2.2309   -3.8630 C   0  0  0  0  0  0  0  0  0  0  0  0
    2.5269    2.7328   -1.9423 C   0  0  0  0  0  0  0  0  0  0  0  0
    1.9634    1.8026   -2.8073 C   0  0  0  0  0  0  0  0  0  0  0  0
    3.5587    3.0021    0.3011 C   0  0  0  0  0  0  0  0  0  0  0  0
    4.2888    2.2782    1.3748 C   0  0  0  0  0  0  0  0  0  0  0  0
    5.2146    1.2620    1.1030 C   0  0  0  0  0  0  0  0  0  0  0  0
    4.0635    2.6819    2.6981 C   0  0  0  0  0  0  0  0  0  0  0  0
    5.9067    0.6510    2.1552 C   0  0  0  0  0  0  0  0  0  0  0  0
    4.7550    2.0777    3.7445 C   0  0  0  0  0  0  0  0  0  0  0  0
    5.6840    1.0669    3.4766 C   0  0  0  0  0  0  0  0  0  0  0  0
    6.4234    0.4307    4.5850 C   0  0  0  0  0  0  0  0  0  0  0  0
  1 19  2  0  0  0  0
  2 26  1  0  0  0  0
  3 26  2  0  0  0  0
  4 17  1  0  0  0  0
  4 19  1  0  0  0  0
  5  7  1  0  0  0  0
  5  9  1  0  0  0  0
  5 11  1  0  0  0  0
  5 12  1  0  0  0  0
  6  8  1  0  0  0  0
  6 10  1  0  0  0  0
  6 13  1  0  0  0  0
  6 14  1  0  0  0  0
  7  8  1  0  0  0  0
  9 10  2  0  0  0  0
  9 15  1  0  0  0  0
 10 16  1  0  0  0  0
 15 17  2  0  0  0  0
 16 18  2  0  0  0  0
 17 18  1  0  0  0  0
 19 20  1  0  0  0  0
 20 21  2  0  0  0  0
 20 22  1  0  0  0  0
 21 23  1  0  0  0  0
 22 24  2  0  0  0  0
 23 25  2  0  0  0  0
 24 25  1  0  0  0  0
 25 26  1  0  0  0  0
M  END
