675
 OpenBabel10141417533D

 28 30  0  0  0  0  0  0  0  0999 V2000
   -0.9600   -0.3859    0.3896 O   0  0  0  0  0  0  0  0  0  0  0  0
   -2.7402   -1.1025    3.6547 N   0  0  0  0  0  0  0  0  0  0  0  0
   -0.9831   -2.0198   -5.0586 C   0  0  0  0  0  0  0  0  0  0  0  0
   -0.5932   -3.2928   -5.3549 C   0  0  0  0  0  0  0  0  0  0  0  0
   -0.9787   -1.5836   -3.6317 C   0  0  0  0  0  0  0  0  0  0  0  0
   -0.6351   -3.9550   -6.7278 C   0  0  0  0  0  0  0  0  0  0  0  0
   -1.5016   -1.0782   -6.0998 C   0  0  0  0  0  0  0  0  0  0  0  0
   -0.1555   -4.2241   -4.2820 C   0  0  0  0  0  0  0  0  0  0  0  0
   -2.1215   -1.7806   -2.8548 C   0  0  0  0  0  0  0  0  0  0  0  0
    0.1489   -0.9992   -3.0428 C   0  0  0  0  0  0  0  0  0  0  0  0
    0.7268   -4.4172   -7.2532 C   0  0  0  0  0  0  0  0  0  0  0  0
   -1.0207   -0.8164   -0.9178 C   0  0  0  0  0  0  0  0  0  0  0  0
   -2.1447   -1.3961   -1.5119 C   0  0  0  0  0  0  0  0  0  0  0  0
    0.1245   -0.6205   -1.6916 C   0  0  0  0  0  0  0  0  0  0  0  0
   -0.6388   -0.2173   -6.7860 C   0  0  0  0  0  0  0  0  0  0  0  0
   -2.8806   -0.9730   -6.3414 C   0  0  0  0  0  0  0  0  0  0  0  0
    1.1949   -4.3136   -3.9090 C   0  0  0  0  0  0  0  0  0  0  0  0
   -1.0972   -5.0140   -3.5993 C   0  0  0  0  0  0  0  0  0  0  0  0
   -1.8347   -0.4311    2.6908 C   0  0  0  0  0  0  0  0  0  0  0  0
   -1.8899   -1.0310    1.2744 C   0  0  0  0  0  0  0  0  0  0  0  0
   -1.1376    0.7056   -7.7164 C   0  0  0  0  0  0  0  0  0  0  0  0
   -3.3808   -0.0369   -7.2557 C   0  0  0  0  0  0  0  0  0  0  0  0
    1.5946   -5.1685   -2.8843 C   0  0  0  0  0  0  0  0  0  0  0  0
   -0.6959   -5.8611   -2.5651 C   0  0  0  0  0  0  0  0  0  0  0  0
   -2.5092    0.7965   -7.9510 C   0  0  0  0  0  0  0  0  0  0  0  0
    0.6489   -5.9377   -2.2091 C   0  0  0  0  0  0  0  0  0  0  0  0
   -2.6207   -0.4843    4.9774 C   0  0  0  0  0  0  0  0  0  0  0  0
   -4.1425   -1.0788    3.2302 C   0  0  0  0  0  0  0  0  0  0  0  0
  1 12  1  0  0  0  0
  1 20  1  0  0  0  0
  2 19  1  0  0  0  0
  2 27  1  0  0  0  0
  2 28  1  0  0  0  0
  3  4  2  0  0  0  0
  3  5  1  0  0  0  0
  3  7  1  0  0  0  0
  4  6  1  0  0  0  0
  4  8  1  0  0  0  0
  5  9  2  0  0  0  0
  5 10  1  0  0  0  0
  6 11  1  0  0  0  0
  7 15  2  0  0  0  0
  7 16  1  0  0  0  0
  8 17  2  0  0  0  0
  8 18  1  0  0  0  0
  9 13  1  0  0  0  0
 10 14  2  0  0  0  0
 12 13  2  0  0  0  0
 12 14  1  0  0  0  0
 15 21  1  0  0  0  0
 16 22  2  0  0  0  0
 17 23  1  0  0  0  0
 18 24  2  0  0  0  0
 19 20  1  0  0  0  0
 21 25  2  0  0  0  0
 22 25  1  0  0  0  0
 23 26  2  0  0  0  0
 24 26  1  0  0  0  0
M  END
