706
 OpenBabel10141417503D

 28 29  0  0  1  0  0  0  0  0999 V2000
   -0.5146   -5.8166    2.1945 S   0  0  0  0  0  0  0  0  0  0  0  0
    4.8955    1.3339    0.4200 O   0  0  0  0  0  0  0  0  0  0  0  0
    0.4709   -8.3282    0.8475 O   0  0  0  0  0  0  0  0  0  0  0  0
   -1.7854   -6.1509    1.6329 O   0  0  0  0  0  0  0  0  0  0  0  0
   -0.0107   -6.3745    3.4383 O   0  0  0  0  0  0  0  0  0  0  0  0
    3.3172    2.4102    2.3784 O   0  0  0  0  0  0  0  0  0  0  0  0
    5.1830   -2.1963   -0.7639 N   0  0  0  0  0  0  0  0  0  0  0  0
   -0.6252   -4.1530    2.5174 N   0  0  0  0  0  0  0  0  0  0  0  0
    4.4985   -3.4509   -0.3773 C   0  0  1  0  0  0  0  0  0  0  0  0
    3.0515   -3.5575   -0.9300 C   0  0  0  0  0  0  0  0  0  0  0  0
    2.3315   -4.8125   -0.4939 C   0  0  0  0  0  0  0  0  0  0  0  0
    5.3795   -4.6042   -0.8832 C   0  0  0  0  0  0  0  0  0  0  0  0
    4.4859   -0.9898   -0.2878 C   0  0  0  0  0  0  0  0  0  0  0  0
    1.3517   -4.7651    0.4982 C   0  0  0  0  0  0  0  0  0  0  0  0
    0.7369   -5.9436    0.9518 C   0  0  0  0  0  0  0  0  0  0  0  0
    2.6559   -6.0493   -1.0512 C   0  0  0  0  0  0  0  0  0  0  0  0
    5.3290    0.2874   -0.4667 C   0  0  0  0  0  0  0  0  0  0  0  0
    1.0849   -7.1876    0.4014 C   0  0  0  0  0  0  0  0  0  0  0  0
    2.0757   -7.2226   -0.5841 C   0  0  0  0  0  0  0  0  0  0  0  0
    5.3058    1.2330    1.7280 C   0  0  0  0  0  0  0  0  0  0  0  0
    4.4721    1.7538    2.7316 C   0  0  0  0  0  0  0  0  0  0  0  0
    6.5356    0.6781    2.1003 C   0  0  0  0  0  0  0  0  0  0  0  0
    0.4396   -9.4131   -0.0866 C   0  0  0  0  0  0  0  0  0  0  0  0
    4.7991    1.5575    4.0800 C   0  0  0  0  0  0  0  0  0  0  0  0
    6.8908    0.5578    3.4440 C   0  0  0  0  0  0  0  0  0  0  0  0
    6.0125    0.9747    4.4350 C   0  0  0  0  0  0  0  0  0  0  0  0
    3.1700    3.6914    3.0129 C   0  0  0  0  0  0  0  0  0  0  0  0
    3.7374    4.7941    2.1365 C   0  0  0  0  0  0  0  0  0  0  0  0
  1  4  2  0  0  0  0
  1  5  2  0  0  0  0
  1  8  1  0  0  0  0
  1 15  1  0  0  0  0
  2 17  1  0  0  0  0
  2 20  1  0  0  0  0
  3 18  1  0  0  0  0
  3 23  1  0  0  0  0
  6 21  1  0  0  0  0
  6 27  1  0  0  0  0
  7 13  1  0  0  0  0
  9 12  1  6  0  0  0
  9 10  1  0  0  0  0
  9  7  1  0  0  0  0
 10 11  1  0  0  0  0
 11 14  2  0  0  0  0
 11 16  1  0  0  0  0
 13 17  1  0  0  0  0
 14 15  1  0  0  0  0
 15 18  2  0  0  0  0
 16 19  2  0  0  0  0
 18 19  1  0  0  0  0
 20 21  1  0  0  0  0
 20 22  2  0  0  0  0
 21 24  2  0  0  0  0
 22 25  1  0  0  0  0
 24 26  1  0  0  0  0
 25 26  2  0  0  0  0
 27 28  1  0  0  0  0
M  END
