1349
 OpenBabel10141417483D

 31 35  0  0  0  0  0  0  0  0999 V2000
    3.7665   -2.0130   -4.3779 O   0  0  0  0  0  0  0  0  0  0  0  0
    1.7828   -2.1938   -3.1666 N   0  0  0  0  0  0  0  0  0  0  0  0
   -0.2963   -2.1534   -2.0181 N   0  0  0  0  0  0  0  0  0  0  0  0
   -2.3243   -2.7285   -3.1138 N   0  0  0  0  0  0  0  0  0  0  0  0
    2.1666   -8.0531    3.2521 N   0  0  0  0  0  0  0  0  0  0  0  0
    1.4761   -7.2486    1.2591 N   0  0  0  0  0  0  0  0  0  0  0  0
    0.8514   -7.8173    3.1874 N   0  0  0  0  0  0  0  0  0  0  0  0
    0.4021   -7.3146    2.0354 N   0  0  0  0  0  0  0  0  0  0  0  0
    0.5448   -3.1108   -5.5421 C   0  0  0  0  0  0  0  0  0  0  0  0
   -0.2584   -2.8079   -4.3189 C   0  0  0  0  0  0  0  0  0  0  0  0
    1.7333   -2.1777   -5.6187 C   0  0  0  0  0  0  0  0  0  0  0  0
    0.3747   -2.3922   -3.1594 C   0  0  0  0  0  0  0  0  0  0  0  0
    2.4603   -1.9694   -1.8844 C   0  0  0  0  0  0  0  0  0  0  0  0
    2.5460   -2.1471   -4.3391 C   0  0  0  0  0  0  0  0  0  0  0  0
   -1.6322   -2.9960   -4.2389 C   0  0  0  0  0  0  0  0  0  0  0  0
    2.9681   -3.2444   -1.2418 C   0  0  0  0  0  0  0  0  0  0  0  0
   -1.6276   -2.3055   -2.0486 C   0  0  0  0  0  0  0  0  0  0  0  0
    2.5109   -3.6561    0.0124 C   0  0  0  0  0  0  0  0  0  0  0  0
    3.9304   -4.0333   -1.8693 C   0  0  0  0  0  0  0  0  0  0  0  0
   -2.4415   -3.4986   -5.3979 C   0  0  0  0  0  0  0  0  0  0  0  0
    3.9460   -5.6583   -0.0159 C   0  0  0  0  0  0  0  0  0  0  0  0
    3.0156   -4.8214    0.6223 C   0  0  0  0  0  0  0  0  0  0  0  0
    4.3732   -5.2263   -1.2893 C   0  0  0  0  0  0  0  0  0  0  0  0
    4.5431   -6.8899    0.6056 C   0  0  0  0  0  0  0  0  0  0  0  0
   -2.3880   -1.9644   -0.8064 C   0  0  0  0  0  0  0  0  0  0  0  0
    3.9223   -7.7730    1.5299 C   0  0  0  0  0  0  0  0  0  0  0  0
    5.8930   -7.1962    0.2640 C   0  0  0  0  0  0  0  0  0  0  0  0
    4.6601   -8.8715    2.0510 C   0  0  0  0  0  0  0  0  0  0  0  0
    6.5914   -8.2942    0.7724 C   0  0  0  0  0  0  0  0  0  0  0  0
    2.5454   -7.6690    2.0146 C   0  0  0  0  0  0  0  0  0  0  0  0
    5.9742   -9.1334    1.6762 C   0  0  0  0  0  0  0  0  0  0  0  0
  1 14  2  0  0  0  0
  2 12  1  0  0  0  0
  2 13  1  0  0  0  0
  2 14  1  0  0  0  0
  3 12  2  0  0  0  0
  3 17  1  0  0  0  0
  4 15  1  0  0  0  0
  4 17  2  0  0  0  0
  5  7  1  0  0  0  0
  5 30  2  0  0  0  0
  6  8  2  0  0  0  0
  6 30  1  0  0  0  0
  7  8  1  0  0  0  0
  9 10  1  0  0  0  0
  9 11  1  0  0  0  0
 10 12  1  0  0  0  0
 10 15  2  0  0  0  0
 11 14  1  0  0  0  0
 13 16  1  0  0  0  0
 15 20  1  0  0  0  0
 16 18  2  0  0  0  0
 16 19  1  0  0  0  0
 17 25  1  0  0  0  0
 18 22  1  0  0  0  0
 19 23  2  0  0  0  0
 21 22  2  0  0  0  0
 21 23  1  0  0  0  0
 21 24  1  0  0  0  0
 24 26  1  0  0  0  0
 24 27  2  0  0  0  0
 26 28  2  0  0  0  0
 26 30  1  0  0  0  0
 27 29  1  0  0  0  0
 28 31  1  0  0  0  0
 29 31  2  0  0  0  0
M  END
