
 OpenBabel10141417533D

 34 37  0  0  0  0  0  0  0  0999 V2000
    2.3351   -1.2251   -2.6428 C   0  0  0  0  0  0  0  0  0  0  0  0
    2.0248   -2.5777   -1.9653 C   0  0  0  0  0  0  0  0  0  0  0  0
    1.0786   -2.4853   -0.7677 C   0  0  0  0  0  0  0  0  0  0  0  0
    0.8460   -3.8516   -0.1555 C   0  0  0  0  0  0  0  0  0  0  0  0
    1.0389   -3.9088    1.2084 N   0  0  0  0  0  0  0  0  0  0  0  0
    0.8247   -5.1395    1.9614 C   0  0  0  0  0  0  0  0  0  0  0  0
   -0.6037   -5.2731    2.4610 C   0  0  0  0  0  0  0  0  0  0  0  0
   -0.7798   -6.7727    3.4142 S   0  0  0  0  0  0  0  0  0  0  0  0
   -0.5348   -7.9286    2.5724 O   0  0  0  0  0  0  0  0  0  0  0  0
   -0.1546   -6.6066    4.7000 O   0  0  0  0  0  0  0  0  0  0  0  0
   -2.3704   -6.6868    3.6879 O   0  0  0  0  0  0  0  0  0  0  0  0
    0.4743   -4.8134   -0.8194 O   0  0  0  0  0  0  0  0  0  0  0  0
    1.0441   -0.6122   -3.2101 C   0  0  0  0  0  0  0  0  0  0  0  0
    3.1018   -0.2315   -1.7130 C   0  0  3  0  0  0  0  0  0  0  0  0
    3.4255    1.1232   -2.4003 C   0  0  0  0  0  0  0  0  0  0  0  0
    4.8606    1.5026   -2.0110 C   0  0  0  0  0  0  0  0  0  0  0  0
    5.1435    0.6637   -0.7703 C   0  0  2  0  0  0  0  0  0  0  0  0
    4.4841   -0.6902   -1.1265 C   0  0  2  0  0  0  0  0  0  0  0  0
    4.3815   -1.4345    0.2225 C   0  0  0  0  0  0  0  0  0  0  0  0
    5.6684   -1.4052    1.0757 C   0  0  0  0  0  0  0  0  0  0  0  0
    6.9141   -0.8541    0.3538 C   0  0  1  0  0  0  0  0  0  0  0  0
    6.6242    0.5348   -0.3243 C   0  0  1  0  0  0  0  0  0  0  0  0
    8.2580   -0.8908    1.1576 C   0  0  2  0  0  0  0  0  0  0  0  0
    8.2729    0.1861    2.2853 C   0  0  2  0  0  0  0  0  0  0  0  0
    7.3615    1.4034    1.9906 C   0  0  0  0  0  0  0  0  0  0  0  0
    7.1644    1.7295    0.5114 C   0  0  2  0  0  0  0  0  0  0  0  0
    8.5890   -2.3394    1.6450 C   0  0  0  0  0  0  0  0  0  0  0  0
    8.1347   -2.7138    3.0485 C   0  0  0  0  0  0  0  0  0  0  0  0
    8.5606   -1.6645    4.0583 C   0  0  2  0  0  0  0  0  0  0  0  0
    7.9310   -0.3266    3.7034 C   0  0  0  0  0  0  0  0  0  0  0  0
    9.4126   -0.5768    0.1447 C   0  0  0  0  0  0  0  0  0  0  0  0
    6.3496    2.8931    0.3862 O   0  0  0  0  0  0  0  0  0  0  0  0
    5.2663   -1.4930   -2.2017 C   0  0  0  0  0  0  0  0  0  0  0  0
    9.9769   -1.5349    4.0786 O   0  0  0  0  0  0  0  0  0  0  0  0
  1  2  1  0  0  0  0
  1 13  1  0  0  0  0
  1 14  1  0  0  0  0
  2  3  1  0  0  0  0
  3  4  1  0  0  0  0
  4  5  1  0  0  0  0
  4 12  2  0  0  0  0
  5  6  1  0  0  0  0
  6  7  1  0  0  0  0
  7  8  1  0  0  0  0
  8  9  2  0  0  0  0
  8 10  2  0  0  0  0
  8 11  1  0  0  0  0
 14 15  1  0  0  0  0
 14 18  1  0  0  0  0
 15 16  1  0  0  0  0
 17 16  1  1  0  0  0
 17 18  1  0  0  0  0
 18 33  1  1  0  0  0
 19 18  1  0  0  0  0
 19 20  1  0  0  0  0
 21 20  1  1  0  0  0
 21 22  1  0  0  0  0
 21 23  1  0  0  0  0
 22 17  1  6  0  0  0
 23 31  1  1  0  0  0
 24 25  1  1  0  0  0
 24 23  1  0  0  0  0
 25 26  1  0  0  0  0
 26 22  1  0  0  0  0
 26 32  1  1  0  0  0
 27 23  1  0  0  0  0
 27 28  1  0  0  0  0
 28 29  1  0  0  0  0
 29 30  1  0  0  0  0
 29 34  1  6  0  0  0
 30 24  1  0  0  0  0
M  END
