799
 OpenBabel10141417493D

 25 27  0  0  0  0  0  0  0  0999 V2000
   -1.7285   -1.9339   -0.0781 S   0  0  0  0  0  0  0  0  0  0  0  0
    9.0967    5.9658    0.1753 O   0  0  0  0  0  0  0  0  0  0  0  0
   10.3421    4.0857   -0.2811 O   0  0  0  0  0  0  0  0  0  0  0  0
    6.8087    1.8320   -0.0715 N   0  0  0  0  0  0  0  0  0  0  0  0
   -1.5082    1.3429    0.0896 C   0  0  0  0  0  0  0  0  0  0  0  0
   -2.7854    0.5675   -0.3152 C   0  0  0  0  0  0  0  0  0  0  0  0
   -0.2410    0.4801    0.0438 C   0  0  0  0  0  0  0  0  0  0  0  0
   -1.4079    2.5386   -0.8933 C   0  0  0  0  0  0  0  0  0  0  0  0
   -1.6664    1.9094    1.5191 C   0  0  0  0  0  0  0  0  0  0  0  0
   -2.9759   -0.7353    0.4358 C   0  0  0  0  0  0  0  0  0  0  0  0
   -0.2554   -0.9268   -0.0265 C   0  0  0  0  0  0  0  0  0  0  0  0
    1.0181    1.1173    0.1075 C   0  0  0  0  0  0  0  0  0  0  0  0
    0.9565   -1.6418   -0.0729 C   0  0  0  0  0  0  0  0  0  0  0  0
    2.2134    0.3964    0.0602 C   0  0  0  0  0  0  0  0  0  0  0  0
    2.1856   -0.9863   -0.0328 C   0  0  0  0  0  0  0  0  0  0  0  0
    3.4557    1.0966    0.0931 C   0  0  0  0  0  0  0  0  0  0  0  0
    4.4755    1.7251    0.1019 C   0  0  0  0  0  0  0  0  0  0  0  0
    5.6579    2.5178    0.0974 C   0  0  0  0  0  0  0  0  0  0  0  0
    5.5849    3.8942    0.2442 C   0  0  0  0  0  0  0  0  0  0  0  0
    7.9839    3.9456    0.0342 C   0  0  0  0  0  0  0  0  0  0  0  0
    6.7716    4.6189    0.2154 C   0  0  0  0  0  0  0  0  0  0  0  0
    7.9503    2.5635   -0.1014 C   0  0  0  0  0  0  0  0  0  0  0  0
    9.2838    4.6422   -0.0450 C   0  0  0  0  0  0  0  0  0  0  0  0
   10.2598    6.7967    0.0846 C   0  0  0  0  0  0  0  0  0  0  0  0
   11.0161    6.7904    1.3983 C   0  0  0  0  0  0  0  0  0  0  0  0
  1 10  1  0  0  0  0
  1 11  1  0  0  0  0
  2 23  1  0  0  0  0
  2 24  1  0  0  0  0
  3 23  2  0  0  0  0
  4 18  2  0  0  0  0
  4 22  1  0  0  0  0
  5  6  1  0  0  0  0
  5  7  1  0  0  0  0
  5  8  1  0  0  0  0
  5  9  1  0  0  0  0
  6 10  1  0  0  0  0
  7 11  2  0  0  0  0
  7 12  1  0  0  0  0
 11 13  1  0  0  0  0
 12 14  2  0  0  0  0
 13 15  2  0  0  0  0
 14 15  1  0  0  0  0
 14 16  1  0  0  0  0
 16 17  3  0  0  0  0
 17 18  1  0  0  0  0
 18 19  1  0  0  0  0
 19 21  2  0  0  0  0
 20 21  1  0  0  0  0
 20 22  2  0  0  0  0
 20 23  1  0  0  0  0
 24 25  1  0  0  0  0
M  END
