
 OpenBabel10141417513D

 20 22  0  0  1  0  0  0  0  0999 V2000
   -1.4055   -1.2460   -0.4186 S   0  0  0  0  0  0  0  0  0  0  0  0
   -0.8133   -2.1047    0.5917 O   0  0  0  0  0  0  0  0  0  0  0  0
   -2.6516   -1.6411   -1.0441 O   0  0  0  0  0  0  0  0  0  0  0  0
    2.0082    0.6386    0.1104 O   0  0  0  0  0  0  0  0  0  0  0  0
   -2.0991    3.2543   -1.2275 O   0  0  0  0  0  0  0  0  0  0  0  0
   -1.9737    1.5787   -2.7405 O   0  0  0  0  0  0  0  0  0  0  0  0
    0.1951    0.4993   -1.3533 N   0  0  0  0  0  0  0  0  0  0  0  0
   -0.9549    1.6841    2.4379 N   0  0  0  0  0  0  0  0  0  0  0  0
   -1.3295    2.8369    1.8481 N   0  0  0  0  0  0  0  0  0  0  0  0
   -1.1948    3.8046    2.7421 N   0  0  0  0  0  0  0  0  0  0  0  0
   -1.5950    0.4380    0.3088 C   0  0  2  0  0  0  0  0  0  0  0  0
   -0.1847   -0.8886   -1.6985 C   0  0  1  0  0  0  0  0  0  0  0  0
   -0.7728    1.3315   -0.6470 C   0  0  2  0  0  0  0  0  0  0  0  0
    1.2806   -1.2733   -1.4293 C   0  0  0  0  0  0  0  0  0  0  0  0
    1.3677    0.1109   -0.7668 C   0  0  0  0  0  0  0  0  0  0  0  0
   -0.9781    0.4183    1.7286 C   0  0  0  0  0  0  0  0  0  0  0  0
   -3.1061    0.7459    0.4052 C   0  0  0  0  0  0  0  0  0  0  0  0
   -1.6485    2.0542   -1.6618 C   0  0  0  0  0  0  0  0  0  0  0  0
   -0.5511    1.8982    3.7214 C   0  0  0  0  0  0  0  0  0  0  0  0
   -0.7185    3.2502    3.8973 C   0  0  0  0  0  0  0  0  0  0  0  0
  1  2  2  0  0  0  0
  1  3  2  0  0  0  0
  1 11  1  0  0  0  0
  4 15  2  0  0  0  0
  5 18  1  0  0  0  0
  6 18  2  0  0  0  0
  7 12  1  0  0  0  0
  7 13  1  0  0  0  0
  7 15  1  0  0  0  0
  8  9  1  0  0  0  0
  8 16  1  0  0  0  0
  8 19  1  0  0  0  0
  9 10  2  0  0  0  0
 10 20  1  0  0  0  0
 11 13  1  0  0  0  0
 11 17  1  1  0  0  0
 11 16  1  0  0  0  0
 12  1  1  1  0  0  0
 12 14  1  0  0  0  0
 13 18  1  6  0  0  0
 14 15  1  0  0  0  0
 19 20  2  0  0  0  0
M  END
