
 OpenBabel10141418033D

 49 53  0  0  1  0  0  0  0  0999 V2000
   -3.1023   -1.3184   -5.1903 O   0  0  0  0  0  0  0  0  0  0  0  0
   -1.9407   -0.3988   -0.2277 O   0  0  0  0  0  0  0  0  0  0  0  0
   -5.6313   -3.2682    0.6923 O   0  0  0  0  0  0  0  0  0  0  0  0
   -1.7209    1.7050   -6.2805 O   0  0  0  0  0  0  0  0  0  0  0  0
   -4.4890    2.7281   -7.8312 O   0  0  0  0  0  0  0  0  0  0  0  0
   -4.0380   -7.4812    2.7424 O   0  0  0  0  0  0  0  0  0  0  0  0
   -3.4543   -1.4164   -1.6109 N   0  0  0  0  0  0  0  0  0  0  0  0
   -3.2828    0.5954   -3.9858 N   0  0  0  0  0  0  0  0  0  0  0  0
   -3.9200   -2.1852    1.7384 N   0  0  0  0  0  0  0  0  0  0  0  0
   -3.2720   -5.3755    2.0927 N   0  0  0  0  0  0  0  0  0  0  0  0
   -2.8992    4.3070   -7.2281 N   0  0  0  0  0  0  0  0  0  0  0  0
   -1.3127   -8.2791    3.0101 N   0  0  0  0  0  0  0  0  0  0  0  0
    0.1770   -7.6358    0.6958 N   0  0  0  0  0  0  0  0  0  0  0  0
   -2.5260   -3.0314   -3.0910 C   0  0  1  0  0  0  0  0  0  0  0  0
   -4.0325   -3.2960   -3.0018 C   0  0  1  0  0  0  0  0  0  0  0  0
   -2.5001   -1.5165   -2.7640 C   0  0  1  0  0  0  0  0  0  0  0  0
   -1.9463   -4.0539   -2.0892 C   0  0  0  0  0  0  0  0  0  0  0  0
   -4.1368   -4.8083   -2.9233 C   0  0  0  0  0  0  0  0  0  0  0  0
   -4.4056   -2.5207   -1.7278 C   0  0  0  0  0  0  0  0  0  0  0  0
   -2.8803   -5.2744   -2.1893 C   0  0  0  0  0  0  0  0  0  0  0  0
   -2.9952   -0.7478   -4.0994 C   0  0  0  0  0  0  0  0  0  0  0  0
   -3.0736   -0.8751   -0.3600 C   0  0  0  0  0  0  0  0  0  0  0  0
   -4.0844   -0.9180    0.9128 C   0  0  2  0  0  0  0  0  0  0  0  0
   -4.0205    0.4212    1.8329 C   0  0  0  0  0  0  0  0  0  0  0  0
   -3.8769    1.4229   -5.1041 C   0  0  1  0  0  0  0  0  0  0  0  0
   -2.7021    0.5767    2.6244 C   0  0  0  0  0  0  0  0  0  0  0  0
   -4.2276    1.7097    0.9889 C   0  0  0  0  0  0  0  0  0  0  0  0
   -5.1505    0.4510    2.9015 C   0  0  0  0  0  0  0  0  0  0  0  0
   -4.7545   -4.3657    3.9040 C   0  0  0  0  0  0  0  0  0  0  0  0
   -4.5331   -4.6259    2.3790 C   0  0  1  0  0  0  0  0  0  0  0  0
   -4.7205   -3.3051    1.5267 C   0  0  0  0  0  0  0  0  0  0  0  0
   -4.6352    2.6005   -4.4563 C   0  0  0  0  0  0  0  0  0  0  0  0
   -4.9880   -5.6283    4.7637 C   0  0  0  0  0  0  0  0  0  0  0  0
   -5.9209   -3.4018    4.2201 C   0  0  0  0  0  0  0  0  0  0  0  0
   -2.8972    2.0024   -6.1665 C   0  0  0  0  0  0  0  0  0  0  0  0
   -6.3545   -6.2848    4.5422 C   0  0  0  0  0  0  0  0  0  0  0  0
   -7.3167   -4.0011    4.0529 C   0  0  0  0  0  0  0  0  0  0  0  0
   -7.4854   -5.3040    4.8234 C   0  0  0  0  0  0  0  0  0  0  0  0
   -1.8861    4.7538   -6.3418 C   0  0  0  0  0  0  0  0  0  0  0  0
   -5.8594    2.1861   -3.6381 C   0  0  0  0  0  0  0  0  0  0  0  0
   -2.1199    6.0080   -5.5511 C   0  0  0  0  0  0  0  0  0  0  0  0
   -0.9983    5.9399   -6.5494 C   0  0  0  0  0  0  0  0  0  0  0  0
   -3.5169    3.0331   -7.1914 C   0  0  0  0  0  0  0  0  0  0  0  0
   -6.9118    1.4482   -4.4548 C   0  0  0  0  0  0  0  0  0  0  0  0
   -3.1160   -6.7384    2.3248 C   0  0  0  0  0  0  0  0  0  0  0  0
   -1.7649   -7.3603    2.1030 C   0  0  0  0  0  0  0  0  0  0  0  0
   -1.0349   -7.0760    0.9505 C   0  0  0  0  0  0  0  0  0  0  0  0
   -0.1266   -8.8587    2.7333 C   0  0  0  0  0  0  0  0  0  0  0  0
    0.6192   -8.5251    1.6139 C   0  0  0  0  0  0  0  0  0  0  0  0
  1 21  2  0  0  0  0
  2 22  2  0  0  0  0
  3 31  2  0  0  0  0
  4 35  2  0  0  0  0
  5 43  2  0  0  0  0
  6 45  2  0  0  0  0
  7 16  1  0  0  0  0
  7 19  1  0  0  0  0
  7 22  1  0  0  0  0
  8 21  1  0  0  0  0
  9 31  1  0  0  0  0
 10 45  1  0  0  0  0
 11 39  1  0  0  0  0
 11 43  1  0  0  0  0
 12 46  2  0  0  0  0
 12 48  1  0  0  0  0
 13 47  2  0  0  0  0
 13 49  1  0  0  0  0
 14 15  1  0  0  0  0
 14 16  1  0  0  0  0
 14 17  1  1  0  0  0
 15 18  1  1  0  0  0
 15 19  1  0  0  0  0
 16 21  1  6  0  0  0
 17 20  1  0  0  0  0
 18 20  1  0  0  0  0
 22 23  1  0  0  0  0
 23  9  1  1  0  0  0
 23 24  1  0  0  0  0
 24 26  1  0  0  0  0
 24 27  1  0  0  0  0
 24 28  1  0  0  0  0
 25  8  1  1  0  0  0
 25 32  1  0  0  0  0
 25 35  1  0  0  0  0
 29 30  1  0  0  0  0
 29 33  1  0  0  0  0
 29 34  1  0  0  0  0
 30 10  1  1  0  0  0
 30 31  1  0  0  0  0
 32 40  1  0  0  0  0
 33 36  1  0  0  0  0
 34 37  1  0  0  0  0
 35 43  1  0  0  0  0
 36 38  1  0  0  0  0
 37 38  1  0  0  0  0
 39 41  1  0  0  0  0
 39 42  1  0  0  0  0
 40 44  1  0  0  0  0
 41 42  1  0  0  0  0
 45 46  1  0  0  0  0
 46 47  1  0  0  0  0
 48 49  2  0  0  0  0
M  END
