
 OpenBabel10141420563D

122130  0  0  0  0  0  0  0  0999 V2000
    1.0982   -1.6928    3.6954 C   0  0  0  0  0  0  0  0  0  0  0  0
    1.0763   -3.5146    3.4971 C   0  0  0  0  0  0  0  0  0  0  0  0
    1.9710   -0.9981    2.6318 C   0  0  0  0  0  0  0  0  0  0  0  0
    0.1683   -0.6457    4.2275 O   0  0  0  0  0  0  0  0  0  0  0  0
    2.2278   -3.5508    3.1749 C   0  0  0  0  0  0  0  0  0  0  0  0
    0.7665   -4.7908    2.5807 O   0  0  0  0  0  0  0  0  0  0  0  0
    2.9504   -1.8218    2.2773 C   0  0  0  0  0  0  0  0  0  0  0  0
    1.4384   -0.2603    1.5148 O   0  0  0  0  0  0  0  0  0  0  0  0
   -0.3554    0.7884    4.1988 C   0  0  1  0  0  0  0  0  0  0  0  0
    2.2145   -2.8636    1.8933 C   0  0  0  0  0  0  0  0  0  0  0  0
    1.6480   -5.7454    1.6496 C   0  0  0  0  0  0  0  0  0  0  0  0
    0.1239    0.2334    1.2238 C   0  0  0  0  0  0  0  0  0  0  0  0
   -1.6734    1.5297    3.2682 C   0  0  2  0  0  0  0  0  0  0  0  0
   -0.7479    0.8344    5.4257 O   0  0  0  0  0  0  0  0  0  0  0  0
    0.5976   -2.5331    0.8938 C   0  0  2  0  0  0  0  0  0  0  0  0
    1.2942   -6.3430    0.2791 C   0  0  0  0  0  0  0  0  0  0  0  0
    3.0687   -5.6909    1.7442 C   0  0  0  0  0  0  0  0  0  0  0  0
   -0.6167    0.6252    2.2608 C   0  0  0  0  0  0  0  0  0  0  0  0
   -0.9479    0.4813   -0.5476 C   0  0  0  0  0  0  0  0  0  0  0  0
   -1.6193    1.5019    1.8424 O   0  0  0  0  0  0  0  0  0  0  0  0
   -1.9887    2.9275    3.6128 C   0  0  2  0  0  0  0  0  0  0  0  0
   -1.1495    2.0569    5.8286 C   0  0  1  0  0  0  0  0  0  0  0  0
    1.5277   -2.7008   -0.1840 C   0  0  0  0  0  0  0  0  0  0  0  0
   -0.6671   -1.5557    0.1838 N   0  0  0  0  0  0  0  0  0  0  0  0
    2.1433   -6.0702   -0.8788 C   0  0  0  0  0  0  0  0  0  0  0  0
    0.7852   -8.0382    0.0270 Cl  0  0  0  0  0  0  0  0  0  0  0  0
    3.7746   -5.2459    0.6182 C   0  0  0  0  0  0  0  0  0  0  0  0
   -1.9333    1.8038    1.6703 C   0  0  0  0  0  0  0  0  0  0  0  0
   -1.0750   -1.8245    2.6522 Cl  0  0  0  0  0  0  0  0  0  0  0  0
   -1.8517    1.3262   -0.9658 C   0  0  0  0  0  0  0  0  0  0  0  0
   -2.5340    2.0172    0.7600 C   0  0  1  0  0  0  0  0  0  0  0  0
   -2.3227    2.7765    5.0626 C   0  0  1  0  0  0  0  0  0  0  0  0
   -3.0979    3.5007    2.9163 O   0  0  0  0  0  0  0  0  0  0  0  0
   -1.6875    1.5388    7.1050 C   0  0  0  0  0  0  0  0  0  0  0  0
    2.5314   -1.8300   -0.8247 N   0  0  0  0  0  0  0  0  0  0  0  0
    1.4947   -3.8204   -0.3587 O   0  0  0  0  0  0  0  0  0  0  0  0
   -2.5365   -1.1294   -0.9187 C   0  0  0  0  0  0  0  0  0  0  0  0
    3.2924   -5.2558   -0.6939 C   0  0  0  0  0  0  0  0  0  0  0  0
   -2.5019    1.8422   -0.0015 C   0  0  0  0  0  0  0  0  0  0  0  0
   -1.3472    1.3572   -2.4212 C   0  0  0  0  0  0  0  0  0  0  0  0
   -4.5188    2.4731    1.5146 O   0  0  0  0  0  0  0  0  0  0  0  0
   -2.5800    4.0334    5.5924 O   0  0  0  0  0  0  0  0  0  0  0  0
   -0.6809    0.9036    7.7964 O   0  0  0  0  0  0  0  0  0  0  0  0
    2.9670   -0.3451   -1.4848 C   0  0  2  0  0  0  0  0  0  0  0  0
   -4.3031   -0.7283   -0.1848 C   0  0  1  0  0  0  0  0  0  0  0  0
   -2.5913   -0.6442   -2.0258 O   0  0  0  0  0  0  0  0  0  0  0  0
    3.6967   -4.0772   -1.7139 C   0  0  2  0  0  0  0  0  0  0  0  0
   -3.7412    2.1850   -0.9348 C   0  0  2  0  0  0  0  0  0  0  0  0
   -3.1280    2.0846   -3.6066 C   0  0  2  0  0  0  0  0  0  0  0  0
   -5.9249    3.0975    0.0820 C   0  0  2  0  0  0  0  0  0  0  0  0
    3.5684    0.6277   -3.1244 C   0  0  0  0  0  0  0  0  0  0  0  0
    4.1537   -0.2023   -0.8163 C   0  0  0  0  0  0  0  0  0  0  0  0
   -4.8160    0.6070    0.7391 N   0  0  0  0  0  0  0  0  0  0  0  0
   -5.5237   -1.1422   -1.1158 C   0  0  0  0  0  0  0  0  0  0  0  0
    4.7506   -2.8562   -0.9733 C   0  0  2  0  0  0  0  0  0  0  0  0
    2.5359   -3.6187   -2.4396 O   0  0  0  0  0  0  0  0  0  0  0  0
   -4.3232    3.1667   -0.2848 C   0  0  2  0  0  0  0  0  0  0  0  0
   -4.6748    1.2580   -1.5145 O   0  0  0  0  0  0  0  0  0  0  0  0
   -5.2005    2.9449   -2.2649 C   0  0  1  0  0  0  0  0  0  0  0  0
   -2.2854    1.0732   -4.6551 C   0  0  0  0  0  0  0  0  0  0  0  0
   -2.9046    3.3664   -4.2930 N   0  0  0  0  0  0  0  0  0  0  0  0
   -6.4409    4.3644   -0.1417 C   0  0  0  0  0  0  0  0  0  0  0  0
    5.0084    1.0579   -3.3328 C   0  0  0  0  0  0  0  0  0  0  0  0
    3.0315    0.7742   -4.5313 C   0  0  0  0  0  0  0  0  0  0  0  0
    4.8995   -1.2559   -1.0871 N   0  0  0  0  0  0  0  0  0  0  0  0
    4.6395    0.9321   -0.7287 O   0  0  0  0  0  0  0  0  0  0  0  0
   -4.8627    2.1136    0.8094 C   0  0  0  0  0  0  0  0  0  0  0  0
   -6.8653   -0.8079   -0.4966 C   0  0  0  0  0  0  0  0  0  0  0  0
    6.0892   -3.5390   -1.0498 C   0  0  0  0  0  0  0  0  0  0  0  0
   -5.3239    3.7482   -1.1371 N   0  0  0  0  0  0  0  0  0  0  0  0
   -6.3549    3.3227   -2.9688 O   0  0  0  0  0  0  0  0  0  0  0  0
    5.7957    0.3437   -4.3300 C   0  0  0  0  0  0  0  0  0  0  0  0
    3.7466    0.0288   -5.4988 C   0  0  0  0  0  0  0  0  0  0  0  0
   -5.1943    2.6463    1.8537 O   0  0  0  0  0  0  0  0  0  0  0  0
   -7.3682    0.3856   -0.7609 N   0  0  0  0  0  0  0  0  0  0  0  0
   -7.4393   -1.5549    0.2772 O   0  0  0  0  0  0  0  0  0  0  0  0
    6.9661   -3.1652   -1.9721 N   0  0  0  0  0  0  0  0  0  0  0  0
    6.3467   -4.5081   -0.3709 O   0  0  0  0  0  0  0  0  0  0  0  0
   -6.6421    3.2942   -1.1543 C   0  0  0  0  0  0  0  0  0  0  0  0
    7.2596   -0.0295   -4.0921 C   0  0  0  0  0  0  0  0  0  0  0  0
    5.0808   -0.2978   -5.3251 C   0  0  0  0  0  0  0  0  0  0  0  0
    6.6025   -2.1051   -2.8141 C   0  0  1  0  0  0  0  0  0  0  0  0
   -7.3871    2.2946   -0.1010 C   0  0  1  0  0  0  0  0  0  0  0  0
   -7.3759    3.8910   -1.9314 O   0  0  0  0  0  0  0  0  0  0  0  0
    7.5369   -1.0790   -3.1976 C   0  0  0  0  0  0  0  0  0  0  0  0
    8.4191    0.4663   -4.7561 C   0  0  0  0  0  0  0  0  0  0  0  0
    5.6405   -1.2754   -6.0599 O   0  0  0  0  0  0  0  0  0  0  0  0
    5.4384   -2.6771   -3.7194 C   0  0  0  0  0  0  0  0  0  0  0  0
   -8.0056    3.0711    0.9904 C   0  0  0  0  0  0  0  0  0  0  0  0
   -8.5048    1.3562   -0.4466 N   0  0  0  0  0  0  0  0  0  0  0  0
    8.7621   -1.2298   -2.5986 C   0  0  0  0  0  0  0  0  0  0  0  0
    9.6892    0.0570   -4.2631 C   0  0  0  0  0  0  0  0  0  0  0  0
    8.3814    1.2206   -5.8822 O   0  0  0  0  0  0  0  0  0  0  0  0
    4.1129   -2.6582   -3.4862 O   0  0  0  0  0  0  0  0  0  0  0  0
    5.7754   -3.4174   -4.6114 O   0  0  0  0  0  0  0  0  0  0  0  0
   -8.7150    2.2700    2.0138 C   0  0  0  0  0  0  0  0  0  0  0  0
   -9.0071    0.5559    0.6966 C   0  0  0  0  0  0  0  0  0  0  0  0
    9.8132   -0.7027   -3.0647 C   0  0  0  0  0  0  0  0  0  0  0  0
   -9.3159    3.1516    3.0914 C   0  0  0  0  0  0  0  0  0  0  0  0
   -9.7996    1.5601    1.2454 C   0  0  0  0  0  0  0  0  0  0  0  0
   10.9532   -1.0692   -2.4293 O   0  0  0  0  0  0  0  0  0  0  0  0
   -4.0379    3.9665   -5.1308 C   0  0  0  0  0  0  0  0  0  0  0  0
   10.8589    0.3385   -5.0563 C   0  0  0  0  0  0  0  0  0  0  0  0
   11.3233    1.6290   -4.6343 N   0  0  0  0  0  0  0  0  0  0  0  0
   12.4417    1.9560   -5.3564 C   0  0  0  0  0  0  0  0  0  0  0  0
   13.1388    3.5889   -4.9131 P   0  0  0  0  0  0  0  0  0  0  0  0
   14.1699    2.9009   -3.6853 O   0  0  0  0  0  0  0  0  0  0  0  0
   14.2018    3.4523   -6.0377 O   0  0  0  0  0  0  0  0  0  0  0  0
   13.7978    5.1326   -4.4941 O   0  0  0  0  0  0  0  0  0  0  0  0
   -4.5319    5.1503   -6.0568 C   0  0  0  0  0  0  0  0  0  0  0  0
   -5.9437    5.0518   -6.5860 N   0  0  0  0  0  0  0  0  0  0  0  0
   -6.2591    6.2005   -7.4162 C   0  0  0  0  0  0  0  0  0  0  0  0
   -7.6761    6.2055   -8.0105 C   0  0  0  0  0  0  0  0  0  0  0  0
   -7.7352    7.4886   -8.8155 C   0  0  0  0  0  0  0  0  0  0  0  0
   -9.0692    7.6566   -9.4742 C   0  0  0  0  0  0  0  0  0  0  0  0
   -9.0348    8.9548  -10.2494 C   0  0  0  0  0  0  0  0  0  0  0  0
  -10.3679    9.1489  -10.9237 C   0  0  0  0  0  0  0  0  0  0  0  0
  -10.3464   10.4462  -11.7037 C   0  0  0  0  0  0  0  0  0  0  0  0
  -11.6885   10.6420  -12.3827 C   0  0  0  0  0  0  0  0  0  0  0  0
  -11.6858   11.9426  -13.1725 C   0  0  0  0  0  0  0  0  0  0  0  0
  -13.0292   12.1399  -13.8530 C   0  0  0  0  0  0  0  0  0  0  0  0
    3.5113    1.8152    2.3945 Cl  0  0  0  0  0  0  0  0  0  0  0  0
  1  2  1  0  0  0  0
  1  3  2  0  0  0  0
  1  4  1  0  0  0  0
  2  5  2  0  0  0  0
  2  6  1  0  0  0  0
  3  7  1  0  0  0  0
  3  8  1  0  0  0  0
  5 10  1  0  0  0  0
  6 11  1  0  0  0  0
  7 10  2  0  0  0  0
  8 12  1  0  0  0  0
  9 13  1  0  0  0  0
  9 14  1  0  0  0  0
  9  4  1  6  0  0  0
 11 16  1  0  0  0  0
 11 17  2  0  0  0  0
 12 18  1  0  0  0  0
 12 19  2  0  0  0  0
 13 21  1  0  0  0  0
 13 20  1  6  0  0  0
 14 22  1  0  0  0  0
 15 10  1  1  0  0  0
 15 23  1  0  0  0  0
 15 24  1  0  0  0  0
 16 25  2  0  0  0  0
 16 26  1  0  0  0  0
 17 27  1  0  0  0  0
 18 28  2  0  0  0  0
 18 29  1  0  0  0  0
 19 30  1  0  0  0  0
 21 32  1  0  0  0  0
 21 33  1  6  0  0  0
 22 34  1  1  0  0  0
 22 32  1  0  0  0  0
 23 35  1  0  0  0  0
 23 36  2  0  0  0  0
 24 37  1  0  0  0  0
 25 38  1  0  0  0  0
 27 38  2  0  0  0  0
 28 39  1  0  0  0  0
 30 39  2  0  0  0  0
 31 40  1  0  0  0  0
 31 41  1  0  0  0  0
 31 20  1  1  0  0  0
 32 42  1  1  0  0  0
 34 43  1  0  0  0  0
 37 45  1  0  0  0  0
 37 46  2  0  0  0  0
 38 47  1  0  0  0  0
 39 48  1  0  0  0  0
 40 49  1  0  0  0  0
 41 50  1  0  0  0  0
 44 35  1  6  0  0  0
 44 51  1  0  0  0  0
 44 52  1  0  0  0  0
 45 53  1  0  0  0  0
 45 54  1  6  0  0  0
 47 55  1  0  0  0  0
 47 56  1  1  0  0  0
 48 57  1  0  0  0  0
 48 58  1  1  0  0  0
 49 59  1  0  0  0  0
 49 61  1  6  0  0  0
 49 60  1  0  0  0  0
 50 59  1  0  0  0  0
 50 62  1  1  0  0  0
 51 63  1  0  0  0  0
 51 64  2  0  0  0  0
 52 65  1  0  0  0  0
 52 66  2  0  0  0  0
 53 67  1  0  0  0  0
 54 68  1  0  0  0  0
 55 69  1  6  0  0  0
 55 65  1  0  0  0  0
 57 70  1  6  0  0  0
 57 67  1  0  0  0  0
 59 71  1  1  0  0  0
 61102  1  0  0  0  0
 63 72  2  0  0  0  0
 64 73  1  0  0  0  0
 67 74  2  0  0  0  0
 68 75  1  0  0  0  0
 68 76  2  0  0  0  0
 69 77  1  0  0  0  0
 69 78  2  0  0  0  0
 70 79  1  0  0  0  0
 72 80  1  0  0  0  0
 72 81  1  0  0  0  0
 73 81  2  0  0  0  0
 77 82  1  0  0  0  0
 79 84  2  0  0  0  0
 80 85  2  0  0  0  0
 80 86  1  0  0  0  0
 81 87  1  0  0  0  0
 82 85  1  0  0  0  0
 82 88  1  6  0  0  0
 83 79  1  6  0  0  0
 83 89  1  0  0  0  0
 83 90  1  0  0  0  0
 85 91  1  0  0  0  0
 86 92  2  0  0  0  0
 86 93  1  0  0  0  0
 88 94  1  0  0  0  0
 88 95  2  0  0  0  0
 89 96  1  0  0  0  0
 90 97  1  0  0  0  0
 91 98  2  0  0  0  0
 92 98  1  0  0  0  0
 92103  1  0  0  0  0
 96 99  1  0  0  0  0
 96100  1  0  0  0  0
 98101  1  0  0  0  0
102110  1  0  0  0  0
103104  1  0  0  0  0
104105  1  0  0  0  0
105106  1  0  0  0  0
106107  1  0  0  0  0
106108  2  0  0  0  0
106109  1  0  0  0  0
110111  1  0  0  0  0
111112  1  0  0  0  0
112113  1  0  0  0  0
113114  1  0  0  0  0
114115  1  0  0  0  0
115116  1  0  0  0  0
116117  1  0  0  0  0
117118  1  0  0  0  0
118119  1  0  0  0  0
119120  1  0  0  0  0
120121  1  0  0  0  0
M  END
