1265
 OpenBabel10141417503D

 17 18  0  0  1  0  0  0  0  0999 V2000
   -0.6543   -0.8839    0.8835 O   0  0  0  0  0  0  0  0  0  0  0  0
   -0.3640    1.9168   -1.3397 O   0  0  0  0  0  0  0  0  0  0  0  0
   -3.1821    0.1694    1.6803 O   0  0  0  0  0  0  0  0  0  0  0  0
    3.5260   -1.0733    0.8436 O   0  0  0  0  0  0  0  0  0  0  0  0
    3.5881   -0.4595    5.3230 O   0  0  0  0  0  0  0  0  0  0  0  0
    1.5026   -0.6779    1.8965 N   0  0  0  0  0  0  0  0  0  0  0  0
    3.5291   -0.6893    3.0662 N   0  0  0  0  0  0  0  0  0  0  0  0
   -0.0437    1.1639   -0.1828 C   0  0  2  0  0  0  0  0  0  0  0  0
    0.7696   -0.9024    0.6420 C   0  0  2  0  0  0  0  0  0  0  0  0
    1.0268    0.1358   -0.4464 C   0  0  0  0  0  0  0  0  0  0  0  0
   -1.2128    0.2959    0.2606 C   0  0  2  0  0  0  0  0  0  0  0  0
   -2.1182    1.0211    1.2576 C   0  0  0  0  0  0  0  0  0  0  0  0
    0.8398   -0.4873    3.0960 C   0  0  0  0  0  0  0  0  0  0  0  0
    2.8857   -0.8279    1.8642 C   0  0  0  0  0  0  0  0  0  0  0  0
    1.4671   -0.3910    4.2728 C   0  0  0  0  0  0  0  0  0  0  0  0
    2.9414   -0.5089    4.2860 C   0  0  0  0  0  0  0  0  0  0  0  0
    0.7652   -0.2021    5.5773 C   0  0  0  0  0  0  0  0  0  0  0  0
  1  9  1  0  0  0  0
  1 11  1  0  0  0  0
  3 12  1  0  0  0  0
  4 14  2  0  0  0  0
  5 16  2  0  0  0  0
  6 13  1  0  0  0  0
  6 14  1  0  0  0  0
  7 14  1  0  0  0  0
  7 16  1  0  0  0  0
  8  2  1  6  0  0  0
  8 10  1  0  0  0  0
  8 11  1  0  0  0  0
  9 10  1  0  0  0  0
  9  6  1  1  0  0  0
 11 12  1  1  0  0  0
 13 15  2  0  0  0  0
 15 16  1  0  0  0  0
 15 17  1  0  0  0  0
M  END
