976
 OpenBabel10141417533D

 58 62  0  0  1  0  0  0  0  0999 V2000
   15.8630    9.0848    2.8346 O   0  0  0  0  0  0  0  0  0  0  0  0
   16.4662    5.5284    2.1421 O   0  0  0  0  0  0  0  0  0  0  0  0
   15.4356    1.6914   -3.3329 O   0  0  0  0  0  0  0  0  0  0  0  0
   16.4876    4.2329   -4.9065 O   0  0  0  0  0  0  0  0  0  0  0  0
   14.8647    0.1397   -5.0268 O   0  0  0  0  0  0  0  0  0  0  0  0
   17.4135    6.1996   -0.2580 O   0  0  0  0  0  0  0  0  0  0  0  0
   13.8710   10.1737    3.0737 O   0  0  0  0  0  0  0  0  0  0  0  0
   17.2419    1.1893   -6.5689 O   0  0  0  0  0  0  0  0  0  0  0  0
   17.6607    2.0735   -0.6646 O   0  0  0  0  0  0  0  0  0  0  0  0
   14.7356    4.8011    0.8777 O   0  0  0  0  0  0  0  0  0  0  0  0
   14.3651    8.9291    1.1719 N   0  0  0  0  0  0  0  0  0  0  0  0
   19.0615   -0.1336   -3.8974 N   0  0  0  0  0  0  0  0  0  0  0  0
   11.2073    6.6829   -1.6658 N   0  0  0  0  0  0  0  0  0  0  0  0
   10.3593    7.4568   -3.5685 N   0  0  0  0  0  0  0  0  0  0  0  0
    6.2041    7.0482   -4.8947 N   0  0  0  0  0  0  0  0  0  0  0  0
   15.6917    8.5441    0.6380 C   0  0  1  0  0  0  0  0  0  0  0  0
   16.3201    8.0024    1.9518 C   0  0  2  0  0  0  0  0  0  0  0  0
   15.8076    7.9499   -0.7998 C   0  0  2  0  0  0  0  0  0  0  0  0
   15.7107    6.6835    2.5371 C   0  0  2  0  0  0  0  0  0  0  0  0
   15.5927    4.2345   -3.7698 C   0  0  2  0  0  0  0  0  0  0  0  0
   17.0038    6.2779   -2.5952 C   0  0  1  0  0  0  0  0  0  0  0  0
   16.8285    6.8204   -1.1439 C   0  0  0  0  0  0  0  0  0  0  0  0
   15.6744    5.6569   -3.0901 C   0  0  0  0  0  0  0  0  0  0  0  0
   15.9882    2.9625   -2.8579 C   0  0  1  0  0  0  0  0  0  0  0  0
   17.8461    8.0582    1.9448 C   0  0  0  0  0  0  0  0  0  0  0  0
   14.5907    9.4816    2.4412 C   0  0  0  0  0  0  0  0  0  0  0  0
   13.1106    9.2453    0.4685 C   0  0  0  0  0  0  0  0  0  0  0  0
   16.0148    9.1545   -1.7358 C   0  0  0  0  0  0  0  0  0  0  0  0
   15.6871    6.6478    4.0811 C   0  0  0  0  0  0  0  0  0  0  0  0
   15.6177    3.1589   -1.3331 C   0  0  2  0  0  0  0  0  0  0  0  0
   14.1217    4.0861   -4.2361 C   0  0  0  0  0  0  0  0  0  0  0  0
   15.6813    1.2911   -4.6968 C   0  0  2  0  0  0  0  0  0  0  0  0
   17.5510    7.3652   -3.5313 C   0  0  0  0  0  0  0  0  0  0  0  0
   11.8920    8.4244    0.9592 C   0  0  0  0  0  0  0  0  0  0  0  0
   17.1609    1.1268   -5.1178 C   0  0  1  0  0  0  0  0  0  0  0  0
   17.7849   -0.2200   -4.6446 C   0  0  2  0  0  0  0  0  0  0  0  0
   16.7494    2.8392   -0.3434 C   0  0  0  0  0  0  0  0  0  0  0  0
   16.7259    3.3982    1.0878 C   0  0  2  0  0  0  0  0  0  0  0  0
   16.6953   -1.1624   -4.0886 C   0  0  0  0  0  0  0  0  0  0  0  0
   15.0241    5.3930    4.6472 C   0  0  0  0  0  0  0  0  0  0  0  0
   15.8652    4.6322    1.3217 C   0  0  0  0  0  0  0  0  0  0  0  0
   14.3333    2.4680   -0.8852 C   0  0  0  0  0  0  0  0  0  0  0  0
   15.5353   -1.1197   -5.0806 C   0  0  1  0  0  0  0  0  0  0  0  0
   11.9685    6.9036    0.7663 C   0  0  0  0  0  0  0  0  0  0  0  0
   18.1793    3.6079    1.5555 C   0  0  0  0  0  0  0  0  0  0  0  0
   16.1496    5.0949   -5.9915 C   0  0  0  0  0  0  0  0  0  0  0  0
   14.5095   -2.2275   -4.8725 C   0  0  0  0  0  0  0  0  0  0  0  0
   12.2001    6.3865   -0.6566 C   0  0  0  0  0  0  0  0  0  0  0  0
   19.5721   -1.4438   -3.5036 C   0  0  0  0  0  0  0  0  0  0  0  0
   19.0943    0.7466   -2.7405 C   0  0  0  0  0  0  0  0  0  0  0  0
    9.8973    6.2966   -1.6847 C   0  0  0  0  0  0  0  0  0  0  0  0
   11.4522    7.3295   -2.8475 C   0  0  0  0  0  0  0  0  0  0  0  0
    9.3622    6.8559   -2.8335 C   0  0  0  0  0  0  0  0  0  0  0  0
    7.9527    6.8622   -3.2015 C   0  0  0  0  0  0  0  0  0  0  0  0
    6.9553    6.7554   -2.2261 C   0  0  0  0  0  0  0  0  0  0  0  0
    7.5154    7.0253   -4.5141 C   0  0  0  0  0  0  0  0  0  0  0  0
    5.6065    6.8029   -2.5784 C   0  0  0  0  0  0  0  0  0  0  0  0
    5.2815    6.9325   -3.9160 C   0  0  0  0  0  0  0  0  0  0  0  0
  1 17  1  0  0  0  0
  1 26  1  0  0  0  0
  2 19  1  0  0  0  0
  2 41  1  0  0  0  0
  4 46  1  0  0  0  0
  5 32  1  0  0  0  0
  5 43  1  0  0  0  0
  6 22  2  0  0  0  0
  7 26  2  0  0  0  0
  9 37  2  0  0  0  0
 10 41  2  0  0  0  0
 11 26  1  0  0  0  0
 11 27  1  0  0  0  0
 12 49  1  0  0  0  0
 12 50  1  0  0  0  0
 13 48  1  0  0  0  0
 13 51  1  0  0  0  0
 13 52  1  0  0  0  0
 14 52  2  0  0  0  0
 14 53  1  0  0  0  0
 15 56  2  0  0  0  0
 15 58  1  0  0  0  0
 16 11  1  1  0  0  0
 16 17  1  0  0  0  0
 16 18  1  0  0  0  0
 17 19  1  0  0  0  0
 17 25  1  6  0  0  0
 18 22  1  0  0  0  0
 18 28  1  6  0  0  0
 19 29  1  1  0  0  0
 20 23  1  0  0  0  0
 20 24  1  0  0  0  0
 20 31  1  6  0  0  0
 20  4  1  0  0  0  0
 21 22  1  0  0  0  0
 21 23  1  0  0  0  0
 21 33  1  6  0  0  0
 24 30  1  0  0  0  0
 24  3  1  6  0  0  0
 27 34  1  0  0  0  0
 29 40  1  0  0  0  0
 30 37  1  0  0  0  0
 30 42  1  1  0  0  0
 32  3  1  1  0  0  0
 32 35  1  0  0  0  0
 34 44  1  0  0  0  0
 35 36  1  0  0  0  0
 35  8  1  6  0  0  0
 36 12  1  1  0  0  0
 36 39  1  0  0  0  0
 37 38  1  0  0  0  0
 38 41  1  0  0  0  0
 38 45  1  6  0  0  0
 39 43  1  0  0  0  0
 43 47  1  1  0  0  0
 44 48  1  0  0  0  0
 51 53  2  0  0  0  0
 53 54  1  0  0  0  0
 54 55  2  0  0  0  0
 54 56  1  0  0  0  0
 55 57  1  0  0  0  0
 57 58  2  0  0  0  0
M  END
