966
 OpenBabel10141417493D

 39 44  0  0  0  0  0  0  0  0999 V2000
   -0.4375    0.2568    0.0233 O   0  0  0  0  0  0  0  0  0  0  0  0
    1.1237   -1.3292   -0.0744 O   0  0  0  0  0  0  0  0  0  0  0  0
   -1.0294    6.6900    3.0422 N   0  0  0  0  0  0  0  0  0  0  0  0
    0.3204    8.2351    3.8957 N   0  0  0  0  0  0  0  0  0  0  0  0
   -5.0619   11.3931    1.6003 N   0  0  0  0  0  0  0  0  0  0  0  0
   -5.4438    9.2614    1.1586 N   0  0  0  0  0  0  0  0  0  0  0  0
   -1.6596    7.9067    2.8191 C   0  0  0  0  0  0  0  0  0  0  0  0
    0.1254    6.9415    3.7652 C   0  0  0  0  0  0  0  0  0  0  0  0
   -0.7666    8.8390    3.3395 C   0  0  0  0  0  0  0  0  0  0  0  0
   -1.5621    5.3783    2.6893 C   0  0  0  0  0  0  0  0  0  0  0  0
    1.0476    5.9251    4.3563 C   0  0  0  0  0  0  0  0  0  0  0  0
   -3.2280    9.6724    2.2182 C   0  0  0  0  0  0  0  0  0  0  0  0
   -2.8902    8.2985    2.2413 C   0  0  0  0  0  0  0  0  0  0  0  0
   -1.0522   10.2052    3.2801 C   0  0  0  0  0  0  0  0  0  0  0  0
   -2.2960   10.5771    2.7451 C   0  0  0  0  0  0  0  0  0  0  0  0
   -4.5471   10.1013    1.6682 C   0  0  0  0  0  0  0  0  0  0  0  0
   -0.6982    4.6010    1.7179 C   0  0  0  0  0  0  0  0  0  0  0  0
    2.4805    6.0617    3.8307 C   0  0  0  0  0  0  0  0  0  0  0  0
   -0.1270   11.2803    3.7682 C   0  0  0  0  0  0  0  0  0  0  0  0
   -6.3596   11.3385    1.1442 C   0  0  0  0  0  0  0  0  0  0  0  0
   -6.5542   10.0042    0.8282 C   0  0  0  0  0  0  0  0  0  0  0  0
   -0.1847    3.3459    2.0651 C   0  0  0  0  0  0  0  0  0  0  0  0
   -0.4159    5.0761    0.4367 C   0  0  0  0  0  0  0  0  0  0  0  0
    2.6173    5.8099    2.3371 C   0  0  0  0  0  0  0  0  0  0  0  0
   -4.4040   12.6420    1.8950 C   0  0  0  0  0  0  0  0  0  0  0  0
    0.7844    2.9925   -0.1727 C   0  0  0  0  0  0  0  0  0  0  0  0
    0.5655    2.5814    1.1514 C   0  0  0  0  0  0  0  0  0  0  0  0
    0.3043    4.2864   -0.4820 C   0  0  0  0  0  0  0  0  0  0  0  0
   -7.3434   12.3210    0.9650 C   0  0  0  0  0  0  0  0  0  0  0  0
   -7.7779    9.6161    0.2572 C   0  0  0  0  0  0  0  0  0  0  0  0
    1.4907    2.1436   -1.2023 C   0  0  0  0  0  0  0  0  0  0  0  0
   -8.5573   11.9175    0.4095 C   0  0  0  0  0  0  0  0  0  0  0  0
   -8.7706   10.5877    0.0492 C   0  0  0  0  0  0  0  0  0  0  0  0
    1.4799    0.7232   -1.2888 C   0  0  0  0  0  0  0  0  0  0  0  0
    2.2492    2.8036   -2.2057 C   0  0  0  0  0  0  0  0  0  0  0  0
    2.1983    0.0475   -2.3101 C   0  0  0  0  0  0  0  0  0  0  0  0
    2.9327    2.1279   -3.2269 C   0  0  0  0  0  0  0  0  0  0  0  0
    2.9121    0.7457   -3.2789 C   0  0  0  0  0  0  0  0  0  0  0  0
    0.7565   -0.2185   -0.3832 C   0  0  0  0  0  0  0  0  0  0  0  0
  1 39  1  0  0  0  0
  2 39  2  0  0  0  0
  3  7  1  0  0  0  0
  3  8  1  0  0  0  0
  3 10  1  0  0  0  0
  4  8  2  0  0  0  0
  4  9  1  0  0  0  0
  5 16  1  0  0  0  0
  5 20  1  0  0  0  0
  5 25  1  0  0  0  0
  6 16  2  0  0  0  0
  6 21  1  0  0  0  0
  7  9  2  0  0  0  0
  7 13  1  0  0  0  0
  8 11  1  0  0  0  0
  9 14  1  0  0  0  0
 10 17  1  0  0  0  0
 11 18  1  0  0  0  0
 12 13  2  0  0  0  0
 12 15  1  0  0  0  0
 12 16  1  0  0  0  0
 14 15  2  0  0  0  0
 14 19  1  0  0  0  0
 17 22  2  0  0  0  0
 17 23  1  0  0  0  0
 18 24  1  0  0  0  0
 20 21  1  0  0  0  0
 20 29  2  0  0  0  0
 21 30  2  0  0  0  0
 22 27  1  0  0  0  0
 23 28  2  0  0  0  0
 26 27  2  0  0  0  0
 26 28  1  0  0  0  0
 26 31  1  0  0  0  0
 29 32  1  0  0  0  0
 30 33  1  0  0  0  0
 31 34  1  0  0  0  0
 31 35  2  0  0  0  0
 32 33  2  0  0  0  0
 34 36  2  0  0  0  0
 34 39  1  0  0  0  0
 35 37  1  0  0  0  0
 36 38  1  0  0  0  0
 37 38  2  0  0  0  0
M  END
