853
 OpenBabel10141417493D

 14 15  0  0  0  0  0  0  0  0999 V2000
    0.9611   -0.2779   -0.1854 O   0  0  0  0  0  0  0  0  0  0  0  0
    7.1291   -2.3273   -0.1025 O   0  0  0  0  0  0  0  0  0  0  0  0
    2.9835   -1.2732   -0.1898 N   0  0  0  0  0  0  0  0  0  0  0  0
    2.9335    0.9950   -0.0167 N   0  0  0  0  0  0  0  0  0  0  0  0
    3.6589   -3.3858   -0.3464 N   0  0  0  0  0  0  0  0  0  0  0  0
    4.9671   -0.0367    0.0266 N   0  0  0  0  0  0  0  0  0  0  0  0
    4.3054    1.0253    0.0899 N   0  0  0  0  0  0  0  0  0  0  0  0
    6.2244   -4.3905   -0.3231 N   0  0  0  0  0  0  0  0  0  0  0  0
    4.3462   -1.2252   -0.1195 C   0  0  0  0  0  0  0  0  0  0  0  0
    4.7607   -2.5410   -0.2224 C   0  0  0  0  0  0  0  0  0  0  0  0
    2.1756   -0.1558   -0.1319 C   0  0  0  0  0  0  0  0  0  0  0  0
    2.6151   -2.5860   -0.3193 C   0  0  0  0  0  0  0  0  0  0  0  0
    2.2702    2.2756    0.1007 C   0  0  0  0  0  0  0  0  0  0  0  0
    6.1331   -3.0326   -0.2069 C   0  0  0  0  0  0  0  0  0  0  0  0
  1 11  2  0  0  0  0
  2 14  2  0  0  0  0
  3  9  1  0  0  0  0
  3 11  1  0  0  0  0
  3 12  1  0  0  0  0
  4  7  1  0  0  0  0
  4 11  1  0  0  0  0
  4 13  1  0  0  0  0
  5 10  1  0  0  0  0
  5 12  2  0  0  0  0
  6  7  2  0  0  0  0
  6  9  1  0  0  0  0
  8 14  1  0  0  0  0
  9 10  2  0  0  0  0
 10 14  1  0  0  0  0
M  END
