
 OpenBabel10141417513D

 73 76  0  0  1  0  0  0  0  0999 V2000
   10.9796  -27.8755   15.4066 N   0  0  0  0  0  0  0  0  0  0  0  0
    9.6777  -27.1315   14.2369 C   0  0  2  0  0  0  0  0  0  0  0  0
   12.0666  -27.0017   15.6748 C   0  0  0  0  0  0  0  0  0  0  0  0
   10.5743  -29.0958   16.7938 C   0  0  0  0  0  0  0  0  0  0  0  0
    9.8776  -25.8598   13.3262 C   0  0  0  0  0  0  0  0  0  0  0  0
    7.7326  -27.2774   14.7837 C   0  0  0  0  0  0  0  0  0  0  0  0
   13.0343  -27.4352   16.7733 C   0  0  0  0  0  0  0  0  0  0  0  0
   12.2626  -25.9239   15.1375 O   0  0  0  0  0  0  0  0  0  0  0  0
    8.6734  -29.3437   17.3789 C   0  0  0  0  0  0  0  0  0  0  0  0
    8.6679  -25.2167   13.3399 O   0  0  0  0  0  0  0  0  0  0  0  0
   10.8355  -25.5788   12.6279 O   0  0  0  0  0  0  0  0  0  0  0  0
    7.2483  -28.3774   16.3762 C   0  0  0  0  0  0  0  0  0  0  0  0
   12.8930  -26.7397   18.1506 C   0  0  2  0  0  0  0  0  0  0  0  0
   13.8006  -28.3792   16.5853 O   0  0  0  0  0  0  0  0  0  0  0  0
    8.3262  -24.2474   12.3167 C   0  0  2  0  0  0  0  0  0  0  0  0
   11.5018  -26.6599   18.4090 O   0  0  0  0  0  0  0  0  0  0  0  0
   13.5460  -25.3380   18.2257 C   0  0  1  0  0  0  0  0  0  0  0  0
   13.4785  -27.6192   19.1244 O   0  0  0  0  0  0  0  0  0  0  0  0
    8.4353  -22.8186   12.9347 C   0  0  1  0  0  0  0  0  0  0  0  0
    6.8676  -24.5654   11.9387 C   0  0  0  0  0  0  0  0  0  0  0  0
   11.1708  -26.1451   19.6846 C   0  0  2  0  0  0  0  0  0  0  0  0
   12.5429  -24.2645   18.6935 C   0  0  0  0  0  0  0  0  0  0  0  0
   14.7946  -25.3071   19.1175 C   0  0  0  0  0  0  0  0  0  0  0  0
    8.0780  -21.7165   11.9095 C   0  0  0  0  0  0  0  0  0  0  0  0
    9.8262  -22.5771   13.5286 C   0  0  0  0  0  0  0  0  0  0  0  0
    6.6377  -25.9364   11.3150 C   0  0  0  0  0  0  0  0  0  0  0  0
    9.6702  -26.3246   19.8710 C   0  0  0  0  0  0  0  0  0  0  0  0
   11.6901  -24.7218   19.8736 C   0  0  0  0  0  0  0  0  0  0  0  0
    7.9959  -20.2521   12.4279 C   0  0  1  0  0  0  0  0  0  0  0  0
    5.1592  -26.3778   11.2223 C   0  0  1  0  0  0  0  0  0  0  0  0
    7.5664  -26.6210   10.8787 O   0  0  0  0  0  0  0  0  0  0  0  0
    8.7062  -25.4204   19.0803 C   0  0  1  0  0  0  0  0  0  0  0  0
    7.6172  -19.3257   11.2471 C   0  0  0  0  0  0  0  0  0  0  0  0
    7.1073  -20.1314   13.6775 C   0  0  0  0  0  0  0  0  0  0  0  0
    4.8315  -27.1623    9.9712 C   0  0  0  0  0  0  0  0  0  0  0  0
    4.6383  -26.9736   12.5234 C   0  0  0  0  0  0  0  0  0  0  0  0
    8.9634  -25.1538   17.5962 C   0  0  0  0  0  0  0  0  0  0  0  0
    7.3621  -25.9131   19.2229 O   0  0  0  0  0  0  0  0  0  0  0  0
    6.4129  -18.4044   11.4770 C   0  0  2  0  0  0  0  0  0  0  0  0
    6.4653  -18.7757   13.9852 C   0  0  0  0  0  0  0  0  0  0  0  0
    5.0563  -28.4387    9.5867 C   0  0  0  0  0  0  0  0  0  0  0  0
    9.1003  -25.9730   16.5197 C   0  0  0  0  0  0  0  0  0  0  0  0
    9.0845  -23.6614   17.3077 C   0  0  0  0  0  0  0  0  0  0  0  0
    6.8159  -25.7273   20.5291 C   0  0  0  0  0  0  0  0  0  0  0  0
    6.4979  -17.7464   12.8638 C   0  0  1  0  0  0  0  0  0  0  0  0
    5.2162  -19.1684   11.2825 O   0  0  0  0  0  0  0  0  0  0  0  0
    5.8476  -29.5380   10.2873 C   0  0  2  0  0  0  0  0  0  0  0  0
    4.5571  -28.8604    8.2147 C   0  0  0  0  0  0  0  0  0  0  0  0
    9.1519  -27.5238   16.3855 C   0  0  0  0  0  0  0  0  0  0  0  0
    7.7545  -17.0298   12.9455 O   0  0  0  0  0  0  0  0  0  0  0  0
    5.0409  -30.7849   10.7696 C   0  0  2  0  0  0  0  0  0  0  0  0
    6.6926  -29.0413   11.3128 O   0  0  0  0  0  0  0  0  0  0  0  0
    9.0061  -28.8785   15.3007 C   0  0  0  0  0  0  0  0  0  0  0  0
    4.2395  -30.5125   12.0636 C   0  0  0  0  0  0  0  0  0  0  0  0
    5.8567  -31.9649   10.8794 O   0  0  0  0  0  0  0  0  0  0  0  0
    9.1035  -30.4057   15.1379 C   0  0  0  0  0  0  0  0  0  0  0  0
    4.6308  -31.2288   13.3756 C   0  0  1  0  0  0  0  0  0  0  0  0
    3.2488  -29.7710   12.0239 O   0  0  0  0  0  0  0  0  0  0  0  0
    6.3729  -32.4109    9.6268 C   0  0  0  0  0  0  0  0  0  0  0  0
    8.1822  -31.3861   14.9993 C   0  0  0  0  0  0  0  0  0  0  0  0
    5.8774  -30.5913   14.0255 C   0  0  0  0  0  0  0  0  0  0  0  0
    3.4342  -31.2258   14.3454 C   0  0  0  0  0  0  0  0  0  0  0  0
    6.6605  -31.5337   14.9755 C   0  0  2  0  0  0  0  0  0  0  0  0
    6.0563  -31.6881   16.3805 C   0  0  0  0  0  0  0  0  0  0  0  0
    7.6512  -15.6535   13.0843 C   0  0  0  0  0  0  0  0  0  0  0  0
    9.0166  -15.0545   12.6634 C   0  0  0  0  0  0  0  0  0  0  0  0
    4.0293  -18.3797   11.3208 C   0  0  0  0  0  0  0  0  0  0  0  0
    6.6697  -15.0379   13.4241 O   0  0  0  0  0  0  0  0  0  0  0  0
    9.9131  -15.0068   13.9080 C   0  0  0  0  0  0  0  0  0  0  0  0
    9.6461  -15.8715   11.5401 C   0  0  0  0  0  0  0  0  0  0  0  0
    8.7416  -13.6098   12.1625 C   0  0  0  0  0  0  0  0  0  0  0  0
   11.1779  -14.4090   13.6323 O   0  0  0  0  0  0  0  0  0  0  0  0
   10.8757  -15.3232   11.0887 O   0  0  0  0  0  0  0  0  0  0  0  0
  1  3  1  0  0  0  0
  1  4  1  0  0  0  0
  2  1  1  1  0  0  0
  2  5  1  0  0  0  0
  2  6  1  0  0  0  0
  3  7  1  0  0  0  0
  3  8  2  0  0  0  0
  4  9  1  0  0  0  0
  5 10  1  0  0  0  0
  5 11  2  0  0  0  0
  6 12  1  0  0  0  0
  7 13  1  0  0  0  0
  7 14  2  0  0  0  0
  9 12  1  0  0  0  0
 13 16  1  0  0  0  0
 13 17  1  0  0  0  0
 13 18  1  1  0  0  0
 15 10  1  1  0  0  0
 15 20  1  0  0  0  0
 15 19  1  0  0  0  0
 17 22  1  0  0  0  0
 17 23  1  1  0  0  0
 19 24  1  1  0  0  0
 19 25  1  0  0  0  0
 20 26  1  0  0  0  0
 21 16  1  6  0  0  0
 21 27  1  0  0  0  0
 21 28  1  0  0  0  0
 22 28  1  0  0  0  0
 26 30  1  0  0  0  0
 26 31  2  0  0  0  0
 27 32  1  0  0  0  0
 29 33  1  0  0  0  0
 29 34  1  0  0  0  0
 29 24  1  6  0  0  0
 30 35  1  0  0  0  0
 30 36  1  1  0  0  0
 32 37  1  0  0  0  0
 32 38  1  6  0  0  0
 33 39  1  0  0  0  0
 34 40  1  0  0  0  0
 35 41  2  0  0  0  0
 37 42  2  0  0  0  0
 37 43  1  0  0  0  0
 38 44  1  0  0  0  0
 39 45  1  0  0  0  0
 39 46  1  1  0  0  0
 40 45  1  0  0  0  0
 41 47  1  0  0  0  0
 41 48  1  0  0  0  0
 42 49  1  0  0  0  0
 45 50  1  6  0  0  0
 46 67  1  0  0  0  0
 47 51  1  0  0  0  0
 47 52  1  1  0  0  0
 49 53  2  0  0  0  0
 50 65  1  0  0  0  0
 51 54  1  0  0  0  0
 51 55  1  1  0  0  0
 53 56  1  0  0  0  0
 54 57  1  0  0  0  0
 54 58  2  0  0  0  0
 55 59  1  0  0  0  0
 56 60  2  0  0  0  0
 57 61  1  0  0  0  0
 57 62  1  1  0  0  0
 60 63  1  0  0  0  0
 61 63  1  0  0  0  0
 63 64  1  1  0  0  0
 65 66  1  0  0  0  0
 65 68  2  0  0  0  0
 66 69  1  0  0  0  0
 66 70  1  0  0  0  0
 66 71  1  0  0  0  0
 69 72  1  0  0  0  0
 70 73  1  0  0  0  0
M  END
