444
 OpenBabel10141417513D

 46 53  0  0  1  0  0  0  0  0999 V2000
   -0.6691   -7.6738   -2.1020 S   0  0  0  0  0  0  0  0  0  0  0  0
   -3.6760   -9.8749    2.8637 O   0  0  0  0  0  0  0  0  0  0  0  0
   -2.0006   -8.7499    7.0831 O   0  0  0  0  0  0  0  0  0  0  0  0
   -2.7712  -11.2233    1.1317 O   0  0  0  0  0  0  0  0  0  0  0  0
   -2.7725   -9.9133   -1.3494 O   0  0  0  0  0  0  0  0  0  0  0  0
   -3.8048   -7.4283    7.6017 O   0  0  0  0  0  0  0  0  0  0  0  0
   -6.1621   -9.7103    1.3283 O   0  0  0  0  0  0  0  0  0  0  0  0
   -1.1057  -11.5977   -1.5466 O   0  0  0  0  0  0  0  0  0  0  0  0
   -5.6694   -9.7150   -1.5091 O   0  0  0  0  0  0  0  0  0  0  0  0
   -3.9795  -15.2507    3.8537 O   0  0  0  0  0  0  0  0  0  0  0  0
   -6.0036  -14.9175    5.1208 O   0  0  0  0  0  0  0  0  0  0  0  0
   -3.2404  -12.5907   10.0767 O   0  0  0  0  0  0  0  0  0  0  0  0
   -6.6934   -9.2922   10.7249 O   0  0  0  0  0  0  0  0  0  0  0  0
   -4.9893  -10.9373   11.8098 O   0  0  0  0  0  0  0  0  0  0  0  0
   -2.6870   -9.3818    4.9633 C   0  0  1  0  0  0  0  0  0  0  0  0
   -3.9370   -9.0160    5.7572 C   0  0  1  0  0  0  0  0  0  0  0  0
   -2.8767  -10.4617    3.9099 C   0  0  1  0  0  0  0  0  0  0  0  0
   -4.8978  -10.1822    6.1451 C   0  0  1  0  0  0  0  0  0  0  0  0
   -3.6034  -11.6522    4.4749 C   0  0  0  0  0  0  0  0  0  0  0  0
   -4.7081  -11.4739    5.3413 C   0  0  0  0  0  0  0  0  0  0  0  0
   -1.6905   -9.6932    6.0516 C   0  0  0  0  0  0  0  0  0  0  0  0
   -3.2829   -8.3076    6.9137 C   0  0  0  0  0  0  0  0  0  0  0  0
   -3.9648  -10.7255    1.7354 C   0  0  2  0  0  0  0  0  0  0  0  0
   -4.9511  -10.4703    7.6555 C   0  0  0  0  0  0  0  0  0  0  0  0
   -4.8410   -9.8873    0.7717 C   0  0  1  0  0  0  0  0  0  0  0  0
   -3.6403  -11.0354   -1.1216 C   0  0  1  0  0  0  0  0  0  0  0  0
   -4.9967  -10.5758   -0.5850 C   0  0  2  0  0  0  0  0  0  0  0  0
   -3.0378  -11.9722   -0.0760 C   0  0  1  0  0  0  0  0  0  0  0  0
   -3.2719  -12.9316    3.9939 C   0  0  0  0  0  0  0  0  0  0  0  0
   -5.5951  -12.5512    5.5427 C   0  0  0  0  0  0  0  0  0  0  0  0
   -4.1261  -13.9686    4.2762 C   0  0  0  0  0  0  0  0  0  0  0  0
   -5.2757  -13.7766    4.9989 C   0  0  0  0  0  0  0  0  0  0  0  0
   -1.7231  -12.5068   -0.6380 C   0  0  0  0  0  0  0  0  0  0  0  0
   -5.8664   -9.7746    8.4617 C   0  0  0  0  0  0  0  0  0  0  0  0
   -4.0916  -11.4001    8.2746 C   0  0  0  0  0  0  0  0  0  0  0  0
   -1.3840  -10.2348   -1.2298 C   0  0  3  0  0  0  0  0  0  0  0  0
   -4.0988  -11.6085    9.6609 C   0  0  0  0  0  0  0  0  0  0  0  0
   -5.8568   -9.9406    9.8477 C   0  0  0  0  0  0  0  0  0  0  0  0
   -5.2175  -15.8256    4.3218 C   0  0  0  0  0  0  0  0  0  0  0  0
   -4.9702  -10.8513   10.4416 C   0  0  0  0  0  0  0  0  0  0  0  0
   -0.6389   -9.3893   -2.2276 C   0  0  0  0  0  0  0  0  0  0  0  0
    0.1525   -9.7898   -3.2913 C   0  0  0  0  0  0  0  0  0  0  0  0
    0.7073   -8.6956   -4.0122 C   0  0  0  0  0  0  0  0  0  0  0  0
    0.3278   -7.4858   -3.4786 C   0  0  0  0  0  0  0  0  0  0  0  0
   -2.7112  -12.4644   11.3897 C   0  0  0  0  0  0  0  0  0  0  0  0
   -7.0745   -7.9763   10.3388 C   0  0  0  0  0  0  0  0  0  0  0  0
  1 41  1  0  0  0  0
  1 44  1  0  0  0  0
  3 21  1  0  0  0  0
  3 22  1  0  0  0  0
  4 23  1  0  0  0  0
  5 36  1  0  0  0  0
  6 22  2  0  0  0  0
  8 33  1  0  0  0  0
  8 36  1  0  0  0  0
 10 31  1  0  0  0  0
 10 39  1  0  0  0  0
 11 32  1  0  0  0  0
 11 39  1  0  0  0  0
 12 37  1  0  0  0  0
 12 45  1  0  0  0  0
 13 38  1  0  0  0  0
 13 46  1  0  0  0  0
 14 40  1  0  0  0  0
 15 16  1  0  0  0  0
 15 17  1  0  0  0  0
 15 21  1  6  0  0  0
 16 18  1  0  0  0  0
 16 22  1  1  0  0  0
 17 19  1  0  0  0  0
 17  2  1  6  0  0  0
 18 20  1  0  0  0  0
 18 24  1  1  0  0  0
 19 20  1  0  0  0  0
 19 29  2  0  0  0  0
 20 30  2  0  0  0  0
 23 25  1  0  0  0  0
 23  2  1  1  0  0  0
 24 34  2  0  0  0  0
 24 35  1  0  0  0  0
 25  7  1  1  0  0  0
 25 27  1  0  0  0  0
 26  5  1  6  0  0  0
 26 27  1  0  0  0  0
 26 28  1  0  0  0  0
 27  9  1  6  0  0  0
 28  4  1  1  0  0  0
 28 33  1  0  0  0  0
 29 31  1  0  0  0  0
 30 32  1  0  0  0  0
 31 32  2  0  0  0  0
 34 38  1  0  0  0  0
 35 37  2  0  0  0  0
 36 41  1  0  0  0  0
 37 40  1  0  0  0  0
 38 40  2  0  0  0  0
 41 42  2  0  0  0  0
 42 43  1  0  0  0  0
 43 44  2  0  0  0  0
M  END
