469
 OpenBabel10141417493D

 22 24  0  0  1  0  0  0  0  0999 V2000
    0.6862    2.2135   -0.4311 S   0  0  0  0  0  0  0  0  0  0  0  0
   -2.0539   -0.8948    0.1403 S   0  0  0  0  0  0  0  0  0  0  0  0
    0.6591    3.2924    0.5159 O   0  0  0  0  0  0  0  0  0  0  0  0
    0.5010    2.3978   -1.8595 O   0  0  0  0  0  0  0  0  0  0  0  0
    0.4513   -1.9336   -1.3990 O   0  0  0  0  0  0  0  0  0  0  0  0
    4.2371   -0.0567   -0.8485 O   0  0  0  0  0  0  0  0  0  0  0  0
    2.0248    1.2044   -0.1604 N   0  0  0  0  0  0  0  0  0  0  0  0
    3.1905   -2.0898   -1.3619 N   0  0  0  0  0  0  0  0  0  0  0  0
    5.5144   -2.1007   -1.8904 N   0  0  0  0  0  0  0  0  0  0  0  0
   -0.6612    1.2293   -0.0088 C   0  0  0  0  0  0  0  0  0  0  0  0
    1.8841   -0.1295   -0.7449 C   0  0  0  0  0  0  0  0  0  0  0  0
   -0.6054   -0.1121   -0.3038 C   0  0  0  0  0  0  0  0  0  0  0  0
    0.5291   -0.8176   -0.8820 C   0  0  0  0  0  0  0  0  0  0  0  0
   -1.8524    1.6258    0.6493 C   0  0  0  0  0  0  0  0  0  0  0  0
    2.5493    1.2516    1.2284 C   0  0  0  0  0  0  0  0  0  0  0  0
    3.0519   -0.7636   -1.0097 C   0  0  0  0  0  0  0  0  0  0  0  0
   -2.7022    0.5515    0.8093 C   0  0  0  0  0  0  0  0  0  0  0  0
    4.3652   -2.7906   -1.6761 C   0  0  0  0  0  0  0  0  0  0  0  0
    4.3550   -4.1813   -1.6301 C   0  0  0  0  0  0  0  0  0  0  0  0
    5.5441   -4.8838   -1.8203 C   0  0  0  0  0  0  0  0  0  0  0  0
    6.6511   -2.8053   -2.1024 C   0  0  0  0  0  0  0  0  0  0  0  0
    6.7179   -4.1847   -2.0625 C   0  0  0  0  0  0  0  0  0  0  0  0
  1  3  2  0  0  0  0
  1  4  2  0  0  0  0
  1  7  1  0  0  0  0
  1 10  1  0  0  0  0
  2 12  1  0  0  0  0
  2 17  1  0  0  0  0
  5 13  2  0  0  0  0
  6 16  1  0  0  0  0
  7 11  1  0  0  0  0
  7 15  1  0  0  0  0
  8 16  1  0  0  0  0
  8 18  1  0  0  0  0
  9 18  1  0  0  0  0
  9 21  2  0  0  0  0
 10 12  2  0  0  0  0
 10 14  1  0  0  0  0
 11 13  1  0  0  0  0
 11 16  2  0  0  0  0
 12 13  1  0  0  0  0
 14 17  2  0  0  0  0
 18 19  2  0  0  0  0
 19 20  1  0  0  0  0
 20 22  2  0  0  0  0
 21 22  1  0  0  0  0
M  END
