1162
 OpenBabel10141417493D

 28 31  0  0  1  0  0  0  0  0999 V2000
    3.2439   -1.6067   -1.9712 O   0  0  0  0  0  0  0  0  0  0  0  0
    0.4827   -1.3520   -0.0244 O   0  0  0  0  0  0  0  0  0  0  0  0
    0.0479  -12.3752    1.7106 O   0  0  0  0  0  0  0  0  0  0  0  0
    1.0430  -13.6163   -0.4469 O   0  0  0  0  0  0  0  0  0  0  0  0
    0.8983   -3.2802   -1.1832 N   0  0  0  0  0  0  0  0  0  0  0  0
    0.3522   -6.0657   -1.5831 N   0  0  0  0  0  0  0  0  0  0  0  0
    0.1374   -8.1764   -0.5639 N   0  0  0  0  0  0  0  0  0  0  0  0
    0.9758   -7.9999   -2.7580 N   0  0  0  0  0  0  0  0  0  0  0  0
    1.6692   -9.8146   -3.9926 N   0  0  0  0  0  0  0  0  0  0  0  0
    1.8904   -1.1240   -1.9875 C   0  0  3  0  0  0  0  0  0  0  0  0
    0.0677   -4.0291   -0.2318 C   0  0  0  0  0  0  0  0  0  0  0  0
    1.0201   -3.8804   -2.5165 C   0  0  0  0  0  0  0  0  0  0  0  0
    0.3804   -5.5305   -0.2127 C   0  0  0  0  0  0  0  0  0  0  0  0
    1.2867   -5.3880   -2.4928 C   0  0  0  0  0  0  0  0  0  0  0  0
    1.9828    0.3557   -1.6612 C   0  0  0  0  0  0  0  0  0  0  0  0
    1.0219   -1.9089   -0.9749 C   0  0  0  0  0  0  0  0  0  0  0  0
    3.1325    0.3978   -0.6863 C   0  0  0  0  0  0  0  0  0  0  0  0
    4.0430   -0.6999   -1.1952 C   0  0  0  0  0  0  0  0  0  0  0  0
    0.4912   -7.4535   -1.6341 C   0  0  0  0  0  0  0  0  0  0  0  0
    0.3349   -9.4925   -0.5939 C   0  0  0  0  0  0  0  0  0  0  0  0
    0.8522  -10.1400   -1.7108 C   0  0  0  0  0  0  0  0  0  0  0  0
    1.1445   -9.3190   -2.7930 C   0  0  0  0  0  0  0  0  0  0  0  0
    0.0452  -10.2379    0.5390 C   0  0  0  0  0  0  0  0  0  0  0  0
    1.0713  -11.5284   -1.6869 C   0  0  0  0  0  0  0  0  0  0  0  0
    0.2960  -11.6138    0.5950 C   0  0  0  0  0  0  0  0  0  0  0  0
    0.7853  -12.2735   -0.5444 C   0  0  0  0  0  0  0  0  0  0  0  0
    0.1754  -11.7050    2.9630 C   0  0  0  0  0  0  0  0  0  0  0  0
    0.9797  -14.3603   -1.6604 C   0  0  0  0  0  0  0  0  0  0  0  0
  1 10  1  0  0  0  0
  1 18  1  0  0  0  0
  2 16  2  0  0  0  0
  3 25  1  0  0  0  0
  3 27  1  0  0  0  0
  4 26  1  0  0  0  0
  4 28  1  0  0  0  0
  5 11  1  0  0  0  0
  5 12  1  0  0  0  0
  5 16  1  0  0  0  0
  6 13  1  0  0  0  0
  6 14  1  0  0  0  0
  6 19  1  0  0  0  0
  7 19  2  0  0  0  0
  7 20  1  0  0  0  0
  8 19  1  0  0  0  0
  8 22  2  0  0  0  0
  9 22  1  0  0  0  0
 10 15  1  0  0  0  0
 10 16  1  0  0  0  0
 11 13  1  0  0  0  0
 12 14  1  0  0  0  0
 15 17  1  0  0  0  0
 17 18  1  0  0  0  0
 20 21  1  0  0  0  0
 20 23  2  0  0  0  0
 21 22  1  0  0  0  0
 21 24  2  0  0  0  0
 23 25  1  0  0  0  0
 24 26  1  0  0  0  0
 25 26  2  0  0  0  0
M  END
