871
 OpenBabel10141417513D

 16 16  0  0  1  0  0  0  0  0999 V2000
    1.3139    0.0441   -0.5963 O   0  0  0  0  0  0  0  0  0  0  0  0
    2.5080   -4.3924   -2.6703 O   0  0  0  0  0  0  0  0  0  0  0  0
    6.4835   -1.8949   -3.0335 O   0  0  0  0  0  0  0  0  0  0  0  0
    2.4033    0.8009    1.9508 N   0  0  0  0  0  0  0  0  0  0  0  0
    2.6522    0.5996    3.4015 C   0  0  0  0  0  0  0  0  0  0  0  0
    3.0473   -0.2150    1.0812 C   0  0  0  0  0  0  0  0  0  0  0  0
    2.7337    0.0093   -0.4194 C   0  0  3  0  0  0  0  0  0  0  0  0
    1.9434    1.7278    4.1823 C   0  0  0  0  0  0  0  0  0  0  0  0
    2.0666   -0.7394    3.8799 C   0  0  0  0  0  0  0  0  0  0  0  0
    4.1537    0.6591    3.7362 C   0  0  0  0  0  0  0  0  0  0  0  0
    3.3406   -1.0840   -1.2825 C   0  0  0  0  0  0  0  0  0  0  0  0
    4.6580   -0.9622   -1.7672 C   0  0  0  0  0  0  0  0  0  0  0  0
    2.6213   -2.2510   -1.5830 C   0  0  0  0  0  0  0  0  0  0  0  0
    3.1934   -3.2565   -2.3659 C   0  0  0  0  0  0  0  0  0  0  0  0
    5.2101   -1.9848   -2.5488 C   0  0  0  0  0  0  0  0  0  0  0  0
    4.4860   -3.1243   -2.8544 C   0  0  0  0  0  0  0  0  0  0  0  0
  1  7  1  0  0  0  0
  2 14  1  0  0  0  0
  3 15  1  0  0  0  0
  4  5  1  0  0  0  0
  4  6  1  0  0  0  0
  5  8  1  0  0  0  0
  5  9  1  0  0  0  0
  5 10  1  0  0  0  0
  6  7  1  0  0  0  0
  7 11  1  0  0  0  0
 11 12  2  0  0  0  0
 11 13  1  0  0  0  0
 12 15  1  0  0  0  0
 13 14  2  0  0  0  0
 14 16  1  0  0  0  0
 15 16  2  0  0  0  0
M  END
