251
 OpenBabel10141417503D

 36 40  0  0  1  0  0  0  0  0999 V2000
    1.4330    9.5713   -0.3529 Cl  0  0  0  0  0  0  0  0  0  0  0  0
   -0.5504    9.4964    4.6072 Cl  0  0  0  0  0  0  0  0  0  0  0  0
    1.5193    6.5647   -1.0914 O   0  0  0  0  0  0  0  0  0  0  0  0
    2.4269    5.1206    0.5078 O   0  0  0  0  0  0  0  0  0  0  0  0
   -0.2401    3.7421   -2.6688 O   0  0  0  0  0  0  0  0  0  0  0  0
   -8.6688    4.5278   -1.4337 N   0  0  0  0  0  0  0  0  0  0  0  0
   -5.8547    3.9610   -2.2821 N   0  0  0  0  0  0  0  0  0  0  0  0
    4.6180    7.0493    0.9242 N   0  0  0  0  0  0  0  0  0  0  0  0
    4.4306    7.8841    1.9660 N   0  0  0  0  0  0  0  0  0  0  0  0
    6.3453    6.6748    2.2101 N   0  0  0  0  0  0  0  0  0  0  0  0
   -8.0426    3.1913   -1.2995 C   0  0  0  0  0  0  0  0  0  0  0  0
   -8.0539    5.1402   -2.6322 C   0  0  0  0  0  0  0  0  0  0  0  0
   -6.4970    3.1698   -1.2083 C   0  0  0  0  0  0  0  0  0  0  0  0
   -6.5176    5.2509   -2.5900 C   0  0  0  0  0  0  0  0  0  0  0  0
    2.2936    6.5207    0.1335 C   0  0  1  0  0  0  0  0  0  0  0  0
   -8.5636    5.3645   -0.2151 C   0  0  0  0  0  0  0  0  0  0  0  0
    0.8724    5.2928   -1.1735 C   0  0  2  0  0  0  0  0  0  0  0  0
    1.9006    4.3676   -0.5840 C   0  0  0  0  0  0  0  0  0  0  0  0
    3.7085    7.0407   -0.1938 C   0  0  0  0  0  0  0  0  0  0  0  0
   -4.4497    3.9308   -2.3425 C   0  0  0  0  0  0  0  0  0  0  0  0
    1.5230    7.2930    1.2093 C   0  0  0  0  0  0  0  0  0  0  0  0
    0.5247    4.9485   -2.6120 C   0  0  0  0  0  0  0  0  0  0  0  0
   -9.2227    6.7411   -0.4154 C   0  0  0  0  0  0  0  0  0  0  0  0
   -9.2565    4.6976    0.9851 C   0  0  0  0  0  0  0  0  0  0  0  0
   -3.7077    5.0284   -2.8021 C   0  0  0  0  0  0  0  0  0  0  0  0
   -3.7010    2.7853   -2.0197 C   0  0  0  0  0  0  0  0  0  0  0  0
   -1.5974    3.8706   -2.5723 C   0  0  0  0  0  0  0  0  0  0  0  0
    1.1422    8.6449    1.0792 C   0  0  0  0  0  0  0  0  0  0  0  0
    1.1941    6.6466    2.4224 C   0  0  0  0  0  0  0  0  0  0  0  0
   -2.3163    5.0026   -2.9229 C   0  0  0  0  0  0  0  0  0  0  0  0
   -2.2985    2.7527   -2.1306 C   0  0  0  0  0  0  0  0  0  0  0  0
    0.4903    9.3185    2.1232 C   0  0  0  0  0  0  0  0  0  0  0  0
    0.5619    7.3232    3.4687 C   0  0  0  0  0  0  0  0  0  0  0  0
    5.7796    6.3562    1.0731 C   0  0  0  0  0  0  0  0  0  0  0  0
    0.2168    8.6585    3.3155 C   0  0  0  0  0  0  0  0  0  0  0  0
    5.4779    7.5912    2.7353 C   0  0  0  0  0  0  0  0  0  0  0  0
  1 28  1  0  0  0  0
  2 35  1  0  0  0  0
  3 15  1  0  0  0  0
  3 17  1  0  0  0  0
  4 15  1  0  0  0  0
  4 18  1  0  0  0  0
  5 22  1  0  0  0  0
  5 27  1  0  0  0  0
  6 11  1  0  0  0  0
  6 12  1  0  0  0  0
  6 16  1  0  0  0  0
  7 13  1  0  0  0  0
  7 14  1  0  0  0  0
  7 20  1  0  0  0  0
  8  9  1  0  0  0  0
  8 19  1  0  0  0  0
  8 34  1  0  0  0  0
  9 36  2  0  0  0  0
 10 34  2  0  0  0  0
 10 36  1  0  0  0  0
 11 13  1  0  0  0  0
 12 14  1  0  0  0  0
 15 19  1  6  0  0  0
 15 21  1  0  0  0  0
 16 23  1  0  0  0  0
 16 24  1  0  0  0  0
 17 18  1  0  0  0  0
 17 22  1  6  0  0  0
 20 25  2  0  0  0  0
 20 26  1  0  0  0  0
 21 28  2  0  0  0  0
 21 29  1  0  0  0  0
 25 30  1  0  0  0  0
 26 31  2  0  0  0  0
 27 30  2  0  0  0  0
 27 31  1  0  0  0  0
 28 32  1  0  0  0  0
 29 33  2  0  0  0  0
 32 35  2  0  0  0  0
 33 35  1  0  0  0  0
M  END
