2638
 OpenBabel10141417523D

 85 88  0  0  1  0  0  0  0  0999 V2000
    4.6492   -5.0782   -5.9663 S   0  0  0  0  0  0  0  0  0  0  0  0
    5.3818   -4.3251   -7.8305 S   0  0  0  0  0  0  0  0  0  0  0  0
   -0.9577   -2.3284   -5.6795 O   0  0  0  0  0  0  0  0  0  0  0  0
    4.0202   -1.5554   -3.0385 O   0  0  0  0  0  0  0  0  0  0  0  0
   -1.0725   -1.4635   -8.7616 O   0  0  0  0  0  0  0  0  0  0  0  0
    2.6218   -5.5269   -1.4305 O   0  0  0  0  0  0  0  0  0  0  0  0
    2.2177   -7.9102   -3.8100 O   0  0  0  0  0  0  0  0  0  0  0  0
   -2.0570   -4.5179   -2.6342 O   0  0  0  0  0  0  0  0  0  0  0  0
    0.1801  -11.3265   -3.5059 O   0  0  0  0  0  0  0  0  0  0  0  0
    2.2154    1.7068  -10.4687 O   0  0  0  0  0  0  0  0  0  0  0  0
    3.3073   -7.2929  -10.6470 O   0  0  0  0  0  0  0  0  0  0  0  0
    1.5454   -7.4729   -6.4263 O   0  0  0  0  0  0  0  0  0  0  0  0
    5.2155  -12.9847   -3.3842 O   0  0  0  0  0  0  0  0  0  0  0  0
    1.5717   -5.9461  -12.1566 O   0  0  0  0  0  0  0  0  0  0  0  0
    4.1301  -14.7085   -6.6385 O   0  0  0  0  0  0  0  0  0  0  0  0
   -2.7395   -3.6766   -9.1362 O   0  0  0  0  0  0  0  0  0  0  0  0
   -4.5571   -7.4216  -11.5916 O   0  0  0  0  0  0  0  0  0  0  0  0
    1.8009   -1.5270   -3.4664 N   0  0  0  0  0  0  0  0  0  0  0  0
    1.1904   -1.8611   -6.1713 N   0  0  0  0  0  0  0  0  0  0  0  0
    2.0486   -4.7562   -3.5252 N   0  0  0  0  0  0  0  0  0  0  0  0
    0.6836   -0.0071   -8.7881 N   0  0  0  0  0  0  0  0  0  0  0  0
    0.9661   -7.8842   -1.9378 N   0  0  0  0  0  0  0  0  0  0  0  0
   -1.3518   -6.9153   -6.6005 N   0  0  0  0  0  0  0  0  0  0  0  0
    2.2344  -10.4124   -3.8924 N   0  0  0  0  0  0  0  0  0  0  0  0
    1.4565   -9.7408   -6.5960 N   0  0  0  0  0  0  0  0  0  0  0  0
    3.1351   -6.9792   -8.4341 N   0  0  0  0  0  0  0  0  0  0  0  0
    1.9866   -4.4902  -10.4309 N   0  0  0  0  0  0  0  0  0  0  0  0
   -0.7880   -3.6329   -1.0056 N   0  0  0  0  0  0  0  0  0  0  0  0
    0.5483    1.2899  -11.9351 N   0  0  0  0  0  0  0  0  0  0  0  0
    5.5472  -10.8600   -4.2157 N   0  0  0  0  0  0  0  0  0  0  0  0
   -0.9344   -3.8434  -10.5219 N   0  0  0  0  0  0  0  0  0  0  0  0
   -3.9471   -5.9647   -9.9426 N   0  0  0  0  0  0  0  0  0  0  0  0
   -7.1392   -7.0650   -9.8512 N   0  0  0  0  0  0  0  0  0  0  0  0
    0.5160   -2.0996   -3.7919 C   0  0  1  0  0  0  0  0  0  0  0  0
   -0.5336   -1.1620   -3.2212 C   0  0  0  0  0  0  0  0  0  0  0  0
    0.1339    0.1897   -3.1466 C   0  0  0  0  0  0  0  0  0  0  0  0
    1.6352   -0.0668   -3.3396 C   0  0  0  0  0  0  0  0  0  0  0  0
    0.1708   -2.0839   -5.2920 C   0  0  0  0  0  0  0  0  0  0  0  0
    3.0024   -2.2150   -3.2938 C   0  0  0  0  0  0  0  0  0  0  0  0
    3.1942   -3.7729   -3.7201 C   0  0  2  0  0  0  0  0  0  0  0  0
    1.0179   -2.1231   -7.5770 C   0  0  1  0  0  0  0  0  0  0  0  0
    3.7412   -3.6562   -5.2029 C   0  0  0  0  0  0  0  0  0  0  0  0
    0.8626   -3.5918   -7.9100 C   0  0  0  0  0  0  0  0  0  0  0  0
   -0.2112   -4.5259   -7.5428 C   0  0  0  0  0  0  0  0  0  0  0  0
    0.0813   -1.1737   -8.3983 C   0  0  0  0  0  0  0  0  0  0  0  0
    1.8346   -5.5404   -2.3777 C   0  0  0  0  0  0  0  0  0  0  0  0
    0.5330   -6.5078   -2.3621 C   0  0  2  0  0  0  0  0  0  0  0  0
   -0.1947   -4.9805   -6.1143 C   0  0  0  0  0  0  0  0  0  0  0  0
   -0.5877   -6.0154   -1.4354 C   0  0  0  0  0  0  0  0  0  0  0  0
   -1.4924   -5.6868   -5.8642 C   0  0  0  0  0  0  0  0  0  0  0  0
    2.4037   -9.9290   -2.5187 C   0  0  2  0  0  0  0  0  0  0  0  0
    0.0664    1.0830   -9.5372 C   0  0  0  0  0  0  0  0  0  0  0  0
    1.8572   -8.4937   -2.7775 C   0  0  0  0  0  0  0  0  0  0  0  0
    3.8582   -4.0674   -8.7997 C   0  0  0  0  0  0  0  0  0  0  0  0
    3.8794   -9.7886   -2.0740 C   0  0  0  0  0  0  0  0  0  0  0  0
   -1.2075   -4.6748   -1.7801 C   0  0  0  0  0  0  0  0  0  0  0  0
    3.3381   -4.9583   -9.9700 C   0  0  1  0  0  0  0  0  0  0  0  0
    0.4336   -9.9802   -5.5579 C   0  0  2  0  0  0  0  0  0  0  0  0
    0.9396  -10.7331   -4.2808 C   0  0  0  0  0  0  0  0  0  0  0  0
    2.9325   -8.4314   -8.1616 C   0  0  2  0  0  0  0  0  0  0  0  0
    1.0298    1.4212  -10.6694 C   0  0  0  0  0  0  0  0  0  0  0  0
    4.7641  -11.0477   -1.9891 C   0  0  0  0  0  0  0  0  0  0  0  0
    3.2984   -6.4976   -9.7072 C   0  0  0  0  0  0  0  0  0  0  0  0
   -0.7700  -10.7641   -6.0859 C   0  0  0  0  0  0  0  0  0  0  0  0
    1.9263   -8.5060   -6.9781 C   0  0  0  0  0  0  0  0  0  0  0  0
    4.2877   -9.1403   -7.9383 C   0  0  0  0  0  0  0  0  0  0  0  0
   -1.5021  -10.1235   -7.2160 C   0  0  0  0  0  0  0  0  0  0  0  0
    5.1331  -11.6860   -3.2485 C   0  0  0  0  0  0  0  0  0  0  0  0
    4.2197  -10.6362   -7.6967 C   0  0  0  0  0  0  0  0  0  0  0  0
    1.1886   -5.0495  -11.4021 C   0  0  0  0  0  0  0  0  0  0  0  0
   -2.6238   -9.3497   -6.9253 C   0  0  0  0  0  0  0  0  0  0  0  0
   -1.0797  -10.3117   -8.5421 C   0  0  0  0  0  0  0  0  0  0  0  0
   -0.1891   -4.3921  -11.6520 C   0  0  0  0  0  0  0  0  0  0  0  0
    4.4272  -11.6257   -8.6427 C   0  0  0  0  0  0  0  0  0  0  0  0
    3.9127  -11.0866   -6.4294 C   0  0  0  0  0  0  0  0  0  0  0  0
   -3.2975   -8.7497   -7.9585 C   0  0  0  0  0  0  0  0  0  0  0  0
   -1.7429   -9.6929   -9.5714 C   0  0  0  0  0  0  0  0  0  0  0  0
    4.4103  -12.9943   -8.2791 C   0  0  0  0  0  0  0  0  0  0  0  0
    3.8225  -12.4324   -6.0590 C   0  0  0  0  0  0  0  0  0  0  0  0
   -2.8337   -8.9212   -9.2580 C   0  0  0  0  0  0  0  0  0  0  0  0
    4.1255  -13.3930   -6.9822 C   0  0  0  0  0  0  0  0  0  0  0  0
   -2.1494   -4.2717  -10.0297 C   0  0  0  0  0  0  0  0  0  0  0  0
   -2.7441   -5.5221  -10.6408 C   0  0  0  0  0  0  0  0  0  0  0  0
   -4.7476   -6.9602  -10.4633 C   0  0  0  0  0  0  0  0  0  0  0  0
   -5.8142   -7.5603   -9.5145 C   0  0  0  0  0  0  0  0  0  0  0  0
  1  2  1  0  0  0  0
  1 42  1  0  0  0  0
  2 54  1  0  0  0  0
  3 38  2  0  0  0  0
  4 39  2  0  0  0  0
  5 45  2  0  0  0  0
  6 46  2  0  0  0  0
  7 53  2  0  0  0  0
  8 56  2  0  0  0  0
  9 59  2  0  0  0  0
 10 61  2  0  0  0  0
 11 63  2  0  0  0  0
 12 65  2  0  0  0  0
 13 68  2  0  0  0  0
 14 70  2  0  0  0  0
 15 81  1  0  0  0  0
 16 82  2  0  0  0  0
 17 84  2  0  0  0  0
 18 34  1  0  0  0  0
 18 37  1  0  0  0  0
 18 39  1  0  0  0  0
 19 38  1  0  0  0  0
 20 40  1  0  0  0  0
 20 46  1  0  0  0  0
 21 45  1  0  0  0  0
 21 52  1  0  0  0  0
 22 47  1  0  0  0  0
 22 53  1  0  0  0  0
 23 50  1  0  0  0  0
 24 51  1  0  0  0  0
 24 59  1  0  0  0  0
 25 58  1  0  0  0  0
 25 65  1  0  0  0  0
 26 60  1  0  0  0  0
 26 63  1  0  0  0  0
 27 70  1  0  0  0  0
 28 56  1  0  0  0  0
 29 61  1  0  0  0  0
 30 68  1  0  0  0  0
 31 73  1  0  0  0  0
 31 82  1  0  0  0  0
 32 83  1  0  0  0  0
 32 84  1  0  0  0  0
 33 85  1  0  0  0  0
 34 35  1  0  0  0  0
 34 38  1  6  0  0  0
 35 36  1  0  0  0  0
 36 37  1  0  0  0  0
 40 42  1  0  0  0  0
 40 39  1  6  0  0  0
 41 19  1  1  0  0  0
 41 43  1  0  0  0  0
 41 45  1  0  0  0  0
 43 44  1  0  0  0  0
 44 48  1  0  0  0  0
 46 47  1  0  0  0  0
 47 49  1  1  0  0  0
 48 50  1  0  0  0  0
 49 56  1  0  0  0  0
 51 53  1  0  0  0  0
 51 55  1  6  0  0  0
 52 61  1  0  0  0  0
 54 57  1  0  0  0  0
 55 62  1  0  0  0  0
 57 27  1  1  0  0  0
 57 63  1  0  0  0  0
 58 59  1  0  0  0  0
 58 64  1  6  0  0  0
 60 65  1  0  0  0  0
 60 66  1  1  0  0  0
 62 68  1  0  0  0  0
 64 67  1  0  0  0  0
 66 69  1  0  0  0  0
 67 71  2  0  0  0  0
 67 72  1  0  0  0  0
 69 74  2  0  0  0  0
 69 75  1  0  0  0  0
 70 73  1  0  0  0  0
 71 76  1  0  0  0  0
 72 77  2  0  0  0  0
 74 78  1  0  0  0  0
 75 79  2  0  0  0  0
 76 80  2  0  0  0  0
 77 80  1  0  0  0  0
 78 81  2  0  0  0  0
 79 81  1  0  0  0  0
 82 83  1  0  0  0  0
 84 85  1  0  0  0  0
M  END
