360
 OpenBabel10141417483D

 17 18  0  0  1  0  0  0  0  0999 V2000
    1.1481   -0.4381    0.0117 O   0  0  0  0  0  0  0  0  0  0  0  0
    2.6342   -0.2299   -2.3247 O   0  0  0  0  0  0  0  0  0  0  0  0
    2.4478    0.8638    5.0377 O   0  0  0  0  0  0  0  0  0  0  0  0
    2.5121   -0.4475    2.5595 N   0  0  0  0  0  0  0  0  0  0  0  0
    3.0164   -3.2274    2.7028 N   0  0  0  0  0  0  0  0  0  0  0  0
    2.9546   -3.0597    5.0931 N   0  0  0  0  0  0  0  0  0  0  0  0
    2.7698   -1.0386    6.2804 N   0  0  0  0  0  0  0  0  0  0  0  0
    3.1456   -3.0447    7.3499 N   0  0  0  0  0  0  0  0  0  0  0  0
    3.0791   -1.1158    1.3607 C   0  0  3  0  0  0  0  0  0  0  0  0
    2.5882   -0.4007    0.0847 C   0  0  3  0  0  0  0  0  0  0  0  0
    2.6812   -2.6255    1.3962 C   0  0  0  0  0  0  0  0  0  0  0  0
    3.1342   -1.0008   -1.2257 C   0  0  3  0  0  0  0  0  0  0  0  0
    2.6349   -1.1365    3.7853 C   0  0  0  0  0  0  0  0  0  0  0  0
    2.8576   -2.4722    3.8635 C   0  0  0  0  0  0  0  0  0  0  0  0
    4.6529   -1.0006   -1.3073 C   0  0  0  0  0  0  0  0  0  0  0  0
    2.5940   -0.3552    5.0923 C   0  0  0  0  0  0  0  0  0  0  0  0
    2.9478   -2.3137    6.2246 C   0  0  0  0  0  0  0  0  0  0  0  0
  1 10  1  0  0  0  0
  2 12  1  0  0  0  0
  3 16  2  0  0  0  0
  4  9  1  0  0  0  0
  4 13  1  0  0  0  0
  5 11  1  0  0  0  0
  5 14  1  0  0  0  0
  6 14  1  0  0  0  0
  6 17  1  0  0  0  0
  7 16  1  0  0  0  0
  7 17  2  0  0  0  0
  8 17  1  0  0  0  0
  9 10  1  0  0  0  0
  9 11  1  0  0  0  0
 10 12  1  0  0  0  0
 12 15  1  0  0  0  0
 13 14  2  0  0  0  0
 13 16  1  0  0  0  0
M  END
