
 OpenBabel10141417503D

 32 35  0  0  1  0  0  0  0  0999 V2000
    8.7508   -3.4546   -3.9810 C   0  0  0  0  0  0  0  0  0  0  0  0
    7.9585   -2.5977   -4.7725 C   0  0  0  0  0  0  0  0  0  0  0  0
    5.8962   -2.1815   -0.0565 C   0  0  1  0  0  0  0  0  0  0  0  0
    5.9220   -0.7139   -0.5116 C   0  0  2  0  0  0  0  0  0  0  0  0
    7.2268   -2.8646   -0.4411 C   0  0  0  0  0  0  0  0  0  0  0  0
    6.2513   -0.6282   -1.9936 C   0  0  0  0  0  0  0  0  0  0  0  0
    7.3771   -2.8755   -1.9860 C   0  0  1  0  0  0  0  0  0  0  0  0
    6.8960   -1.6072   -2.6620 C   0  0  0  0  0  0  0  0  0  0  0  0
    7.0979   -1.5533   -4.1489 C   0  0  0  0  0  0  0  0  0  0  0  0
    8.7923   -3.2864   -2.4683 C   0  0  2  0  0  0  0  0  0  0  0  0
    5.5427   -2.2808    1.4516 C   0  0  1  0  0  0  0  0  0  0  0  0
    7.0040    0.0160    0.3126 C   0  0  0  0  0  0  0  0  0  0  0  0
    4.6524   -0.0742   -0.3515 O   0  0  0  0  0  0  0  0  0  0  0  0
    6.3865   -1.2904    2.2756 C   0  0  0  0  0  0  0  0  0  0  0  0
    4.0758   -2.0252    1.6664 N   0  0  0  0  0  0  0  0  0  0  0  0
    5.7440    0.4918   -2.6292 O   0  0  0  0  0  0  0  0  0  0  0  0
    6.9867   -0.1794    1.7926 C   0  0  0  0  0  0  0  0  0  0  0  0
    7.9219    0.6605   -0.2025 O   0  0  0  0  0  0  0  0  0  0  0  0
    6.5760   -1.6495    3.6068 O   0  0  0  0  0  0  0  0  0  0  0  0
    3.6709   -2.0868    3.0826 C   0  0  0  0  0  0  0  0  0  0  0  0
    3.2229   -2.9875    0.9365 C   0  0  0  0  0  0  0  0  0  0  0  0
    7.6659    0.7965    2.7072 C   0  0  0  0  0  0  0  0  0  0  0  0
    6.5484   -0.7401   -4.8857 O   0  0  0  0  0  0  0  0  0  0  0  0
    8.6411    1.5635    2.1436 N   0  0  0  0  0  0  0  0  0  0  0  0
    7.3629    0.9646    3.8781 O   0  0  0  0  0  0  0  0  0  0  0  0
    9.5230   -4.4431   -4.6210 C   0  0  0  0  0  0  0  0  0  0  0  0
    7.9684   -2.7373   -6.1720 C   0  0  0  0  0  0  0  0  0  0  0  0
    9.5055   -4.5826   -6.0097 C   0  0  0  0  0  0  0  0  0  0  0  0
    8.7311   -3.7263   -6.7854 C   0  0  0  0  0  0  0  0  0  0  0  0
    7.2434   -1.9350   -7.0144 O   0  0  0  0  0  0  0  0  0  0  0  0
    9.0923   -4.5559   -1.8711 O   0  0  0  0  0  0  0  0  0  0  0  0
    9.9036   -2.2883   -2.1043 C   0  0  0  0  0  0  0  0  0  0  0  0
  1 26  2  0  0  0  0
  1  2  1  0  0  0  0
  2 27  2  0  0  0  0
  3 11  1  0  0  0  0
  3  4  1  0  0  0  0
  3  5  1  1  0  0  0
  4 12  1  0  0  0  0
  4  6  1  0  0  0  0
  4 13  1  1  0  0  0
  6  8  2  0  0  0  0
  6 16  1  0  0  0  0
  7  5  1  1  0  0  0
  7  8  1  0  0  0  0
  7 10  1  0  0  0  0
  8  9  1  0  0  0  0
  9  2  1  0  0  0  0
  9 23  2  0  0  0  0
 10  1  1  0  0  0  0
 10 32  1  6  0  0  0
 10 31  1  0  0  0  0
 11 14  1  0  0  0  0
 11 15  1  6  0  0  0
 12 17  1  0  0  0  0
 12 18  2  0  0  0  0
 14 17  2  0  0  0  0
 14 19  1  0  0  0  0
 15 20  1  0  0  0  0
 15 21  1  0  0  0  0
 17 22  1  0  0  0  0
 22 24  1  0  0  0  0
 22 25  2  0  0  0  0
 26 28  1  0  0  0  0
 27 29  1  0  0  0  0
 27 30  1  0  0  0  0
 28 29  2  0  0  0  0
M  END
