1041
 OpenBabel10141417503D

 19 21  0  0  1  0  0  0  0  0999 V2000
    3.8764    1.9512    1.8763 O   0  0  0  0  0  0  0  0  0  0  0  0
    0.1965    1.9534    1.0254 O   0  0  0  0  0  0  0  0  0  0  0  0
    3.7200    3.9413   -1.1431 O   0  0  0  0  0  0  0  0  0  0  0  0
    5.9866   -1.3170   -0.4364 O   0  0  0  0  0  0  0  0  0  0  0  0
    2.1091    2.5647   -0.1630 N   0  0  0  0  0  0  0  0  0  0  0  0
    4.8755    0.3143    0.6742 N   0  0  0  0  0  0  0  0  0  0  0  0
    2.7800    1.2747   -0.1968 C   0  0  3  0  0  0  0  0  0  0  0  0
    3.3522    0.9030   -1.5621 C   0  0  0  0  0  0  0  0  0  0  0  0
    3.9922   -0.4747   -1.4771 C   0  0  0  0  0  0  0  0  0  0  0  0
    3.8829    1.2497    0.8664 C   0  0  0  0  0  0  0  0  0  0  0  0
    0.9225    2.7685    0.4891 C   0  0  0  0  0  0  0  0  0  0  0  0
    2.6538    3.7443   -0.5929 C   0  0  0  0  0  0  0  0  0  0  0  0
    0.6463    4.2016    0.4204 C   0  0  0  0  0  0  0  0  0  0  0  0
    1.7028    4.7974   -0.2434 C   0  0  0  0  0  0  0  0  0  0  0  0
    5.0497   -0.5249   -0.3983 C   0  0  0  0  0  0  0  0  0  0  0  0
   -0.4256    4.9320    0.8944 C   0  0  0  0  0  0  0  0  0  0  0  0
    1.7500    6.1589   -0.4699 C   0  0  0  0  0  0  0  0  0  0  0  0
   -0.4037    6.3130    0.6743 C   0  0  0  0  0  0  0  0  0  0  0  0
    0.6748    6.9212   -0.0019 C   0  0  0  0  0  0  0  0  0  0  0  0
  1 10  2  0  0  0  0
  2 11  2  0  0  0  0
  3 12  2  0  0  0  0
  4 15  2  0  0  0  0
  5  7  1  0  0  0  0
  5 11  1  0  0  0  0
  5 12  1  0  0  0  0
  6 10  1  0  0  0  0
  6 15  1  0  0  0  0
  7  8  1  0  0  0  0
  7 10  1  0  0  0  0
  8  9  1  0  0  0  0
  9 15  1  0  0  0  0
 11 13  1  0  0  0  0
 12 14  1  0  0  0  0
 13 14  1  0  0  0  0
 13 16  2  0  0  0  0
 14 17  2  0  0  0  0
 16 18  1  0  0  0  0
 17 19  1  0  0  0  0
 18 19  2  0  0  0  0
M  END
