277
 OpenBabel10141417483D

 13 14  0  0  0  0  0  0  0  0999 V2000
    0.8589    0.0067    0.0629 O   0  0  0  0  0  0  0  0  0  0  0  0
    4.8653    2.3389    0.0483 O   0  0  0  0  0  0  0  0  0  0  0  0
    4.9488    0.0425    0.0480 N   0  0  0  0  0  0  0  0  0  0  0  0
    2.8538    1.2096    0.0607 N   0  0  0  0  0  0  0  0  0  0  0  0
    2.5096   -2.4446    0.0572 N   0  0  0  0  0  0  0  0  0  0  0  0
    4.7354   -2.3981    0.0492 N   0  0  0  0  0  0  0  0  0  0  0  0
    4.2358   -1.1309    0.0507 C   0  0  0  0  0  0  0  0  0  0  0  0
    2.8761   -1.1313    0.0559 C   0  0  0  0  0  0  0  0  0  0  0  0
    2.0850    0.0441    0.0599 C   0  0  0  0  0  0  0  0  0  0  0  0
    4.2632    1.2606    0.0519 C   0  0  0  0  0  0  0  0  0  0  0  0
    6.3972    0.0586    0.0425 C   0  0  0  0  0  0  0  0  0  0  0  0
    2.1629    2.4836    0.0708 C   0  0  0  0  0  0  0  0  0  0  0  0
    3.6697   -3.1747    0.0536 C   0  0  0  0  0  0  0  0  0  0  0  0
  1  9  2  0  0  0  0
  2 10  2  0  0  0  0
  3  7  1  0  0  0  0
  3 10  1  0  0  0  0
  3 11  1  0  0  0  0
  4  9  1  0  0  0  0
  4 10  1  0  0  0  0
  4 12  1  0  0  0  0
  5  8  1  0  0  0  0
  5 13  1  0  0  0  0
  6  7  1  0  0  0  0
  6 13  2  0  0  0  0
  7  8  2  0  0  0  0
  8  9  1  0  0  0  0
M  END
