730
 OpenBabel10141417483D

 14 16  0  0  0  0  0  0  0  0999 V2000
   -0.4250   -1.4865   -0.0814 S   0  0  0  0  0  0  0  0  0  0  0  0
   -2.1144    2.9446   -0.1397 N   0  0  0  0  0  0  0  0  0  0  0  0
    0.0007    3.5177    0.1629 N   0  0  0  0  0  0  0  0  0  0  0  0
    0.9214    0.6943    0.1819 N   0  0  0  0  0  0  0  0  0  0  0  0
   -2.1145    4.3146   -0.0875 C   0  0  0  0  0  0  0  0  0  0  0  0
   -0.7784    4.6449    0.1021 C   0  0  0  0  0  0  0  0  0  0  0  0
   -0.8240    2.4990    0.0150 C   0  0  0  0  0  0  0  0  0  0  0  0
   -0.4051    1.0595    0.0170 C   0  0  0  0  0  0  0  0  0  0  0  0
   -3.1343    5.2632   -0.1863 C   0  0  0  0  0  0  0  0  0  0  0  0
   -0.4142    5.9950    0.2015 C   0  0  0  0  0  0  0  0  0  0  0  0
   -2.7519    6.6062   -0.0845 C   0  0  0  0  0  0  0  0  0  0  0  0
   -1.4160    6.9694    0.1060 C   0  0  0  0  0  0  0  0  0  0  0  0
   -1.2810    0.0023   -0.1409 C   0  0  0  0  0  0  0  0  0  0  0  0
    1.0318   -0.6135    0.1479 C   0  0  0  0  0  0  0  0  0  0  0  0
  1 13  1  0  0  0  0
  1 14  1  0  0  0  0
  2  5  1  0  0  0  0
  2  7  1  0  0  0  0
  3  6  1  0  0  0  0
  3  7  2  0  0  0  0
  4  8  1  0  0  0  0
  4 14  2  0  0  0  0
  5  6  1  0  0  0  0
  5  9  2  0  0  0  0
  6 10  2  0  0  0  0
  7  8  1  0  0  0  0
  8 13  2  0  0  0  0
  9 11  1  0  0  0  0
 10 12  1  0  0  0  0
 11 12  2  0  0  0  0
M  END
