152
 OpenBabel10141417493D

 18 19  0  0  0  0  0  0  0  0999 V2000
   -1.7761   -0.1371   -0.5862 S   0  0  0  0  0  0  0  0  0  0  0  0
   -3.5851    1.7425    2.2408 O   0  0  0  0  0  0  0  0  0  0  0  0
    0.4331   -0.0207    0.6099 N   0  3  0  0  0  0  0  0  0  0  0  0
    3.8001    1.5788   -1.5145 N   0  0  0  0  0  0  0  0  0  0  0  0
    4.4999    2.2063    0.6623 N   0  0  0  0  0  0  0  0  0  0  0  0
    2.2804   -0.1112   -1.8964 N   0  0  0  0  0  0  0  0  0  0  0  0
   -0.2038    1.1798    0.9285 C   0  0  0  0  0  0  0  0  0  0  0  0
    1.8055   -0.4037    0.9932 C   0  0  0  0  0  0  0  0  0  0  0  0
   -1.4278    1.2985    0.2901 C   0  0  0  0  0  0  0  0  0  0  0  0
   -2.3878    2.4604    0.2726 C   0  0  0  0  0  0  0  0  0  0  0  0
    2.8201    0.5130    0.3852 C   0  0  0  0  0  0  0  0  0  0  0  0
   -0.3024   -0.8517   -0.1118 C   0  0  0  0  0  0  0  0  0  0  0  0
    0.4415    2.1776    1.8189 C   0  0  0  0  0  0  0  0  0  0  0  0
   -3.7496    2.1317    0.8810 C   0  0  0  0  0  0  0  0  0  0  0  0
    2.9690    0.6830   -0.9740 C   0  0  0  0  0  0  0  0  0  0  0  0
    3.6446    1.3006    1.1644 C   0  0  0  0  0  0  0  0  0  0  0  0
    4.5512    2.3126   -0.6735 C   0  0  0  0  0  0  0  0  0  0  0  0
    5.4780    3.3260   -1.2705 C   0  0  0  0  0  0  0  0  0  0  0  0
  1  9  1  0  0  0  0
  1 12  1  0  0  0  0
  2 14  1  0  0  0  0
  3  7  1  0  0  0  0
  3  8  1  0  0  0  0
  3 12  2  0  0  0  0
  4 15  2  0  0  0  0
  4 17  1  0  0  0  0
  5 16  1  0  0  0  0
  5 17  2  0  0  0  0
  6 15  1  0  0  0  0
  7  9  2  0  0  0  0
  7 13  1  0  0  0  0
  8 11  1  0  0  0  0
  9 10  1  0  0  0  0
 10 14  1  0  0  0  0
 11 15  1  0  0  0  0
 11 16  2  0  0  0  0
 17 18  1  0  0  0  0
M  CHG  1   3   1
M  END
