679
 OpenBabel10141417543D

 25 28  0  0  1  0  0  0  0  0999 V2000
   -0.5716   -3.3060   -0.6067 S   0  0  0  0  0  0  0  0  0  0  0  0
    4.6970   -0.6120   -2.9726 S   0  0  0  0  0  0  0  0  0  0  0  0
    1.9508    2.5825    1.3362 N   0  0  0  0  0  0  0  0  0  0  0  0
   -0.2120   -0.2614   -1.2054 N   0  0  0  0  0  0  0  0  0  0  0  0
    0.9363    1.7019    1.9540 C   0  0  3  0  0  0  0  0  0  0  0  0
    1.3342    1.2467    3.3737 C   0  0  0  0  0  0  0  0  0  0  0  0
    0.6173    0.4893    1.0472 C   0  0  0  0  0  0  0  0  0  0  0  0
    2.7340    0.6422    3.4313 C   0  0  0  0  0  0  0  0  0  0  0  0
    3.3081    2.0131    1.3902 C   0  0  0  0  0  0  0  0  0  0  0  0
    3.7529    1.5730    2.7859 C   0  0  0  0  0  0  0  0  0  0  0  0
    0.0896    0.9121   -0.3374 C   0  0  0  0  0  0  0  0  0  0  0  0
    1.9166    3.9362    1.8927 C   0  0  0  0  0  0  0  0  0  0  0  0
    0.9068   -1.0929   -1.4832 C   0  0  0  0  0  0  0  0  0  0  0  0
   -1.5458   -0.7390   -1.1421 C   0  0  0  0  0  0  0  0  0  0  0  0
    0.8660   -2.4828   -1.2695 C   0  0  0  0  0  0  0  0  0  0  0  0
   -1.8428   -2.0974   -0.9306 C   0  0  0  0  0  0  0  0  0  0  0  0
    2.0858   -0.5354   -2.0181 C   0  0  0  0  0  0  0  0  0  0  0  0
   -2.6192    0.1360   -1.4052 C   0  0  0  0  0  0  0  0  0  0  0  0
    1.9985   -3.2669   -1.5267 C   0  0  0  0  0  0  0  0  0  0  0  0
   -3.1738   -2.5457   -0.9446 C   0  0  0  0  0  0  0  0  0  0  0  0
    3.2036   -1.3231   -2.3062 C   0  0  0  0  0  0  0  0  0  0  0  0
   -3.9407   -0.3167   -1.4336 C   0  0  0  0  0  0  0  0  0  0  0  0
    3.1631   -2.6883   -2.0371 C   0  0  0  0  0  0  0  0  0  0  0  0
   -4.2189   -1.6582   -1.1994 C   0  0  0  0  0  0  0  0  0  0  0  0
    4.0534    0.0514   -4.5337 C   0  0  0  0  0  0  0  0  0  0  0  0
  1 15  1  0  0  0  0
  1 16  1  0  0  0  0
  2 21  1  0  0  0  0
  2 25  1  0  0  0  0
  3  5  1  0  0  0  0
  3  9  1  0  0  0  0
  3 12  1  0  0  0  0
  4 11  1  0  0  0  0
  4 13  1  0  0  0  0
  4 14  1  0  0  0  0
  5  6  1  0  0  0  0
  5  7  1  0  0  0  0
  6  8  1  0  0  0  0
  7 11  1  0  0  0  0
  8 10  1  0  0  0  0
  9 10  1  0  0  0  0
 13 15  2  0  0  0  0
 13 17  1  0  0  0  0
 14 16  1  0  0  0  0
 14 18  2  0  0  0  0
 15 19  1  0  0  0  0
 16 20  2  0  0  0  0
 17 21  2  0  0  0  0
 18 22  1  0  0  0  0
 19 23  2  0  0  0  0
 20 24  1  0  0  0  0
 21 23  1  0  0  0  0
 22 24  2  0  0  0  0
M  END
