1623
 OpenBabel10141417503D

 30 33  0  0  0  0  0  0  0  0999 V2000
   12.1776   -1.5969   -0.4895 S   0  0  0  0  0  0  0  0  0  0  0  0
    6.9164    1.1467    1.7797 S   0  0  0  0  0  0  0  0  0  0  0  0
   13.3310   -0.8313   -0.0685 O   0  0  0  0  0  0  0  0  0  0  0  0
   12.0354   -2.9989   -0.1399 O   0  0  0  0  0  0  0  0  0  0  0  0
    8.5356   -5.1138    2.4969 N   0  0  0  0  0  0  0  0  0  0  0  0
   10.8620   -5.9727    4.2108 N   0  0  0  0  0  0  0  0  0  0  0  0
   12.0259   -1.4374   -2.1794 N   0  0  0  0  0  0  0  0  0  0  0  0
    9.9431   -4.8581    2.1150 C   0  0  0  0  0  0  0  0  0  0  0  0
    8.4145   -5.3167    3.9576 C   0  0  0  0  0  0  0  0  0  0  0  0
   10.9572   -5.8411    2.7444 C   0  0  0  0  0  0  0  0  0  0  0  0
    9.4622   -6.2888    4.5516 C   0  0  0  0  0  0  0  0  0  0  0  0
    7.6497   -4.0086    2.0731 C   0  0  0  0  0  0  0  0  0  0  0  0
    7.5797   -3.8229    0.5474 C   0  0  0  0  0  0  0  0  0  0  0  0
   11.3226   -4.7588    4.8842 C   0  0  0  0  0  0  0  0  0  0  0  0
    6.6700   -2.6851    0.1528 C   0  0  0  0  0  0  0  0  0  0  0  0
    6.9476   -1.3690   -0.0120 C   0  0  0  0  0  0  0  0  0  0  0  0
    8.2878   -0.7900    0.2760 C   0  0  0  0  0  0  0  0  0  0  0  0
    5.7809   -0.4649   -0.2189 C   0  0  0  0  0  0  0  0  0  0  0  0
    8.3736    0.3331    1.1244 C   0  0  0  0  0  0  0  0  0  0  0  0
    9.4652   -1.3040   -0.2813 C   0  0  0  0  0  0  0  0  0  0  0  0
    5.6833    0.7077    0.5542 C   0  0  0  0  0  0  0  0  0  0  0  0
   10.7103   -0.7906    0.1040 C   0  0  0  0  0  0  0  0  0  0  0  0
    9.6288    0.8508    1.4853 C   0  0  0  0  0  0  0  0  0  0  0  0
    4.7829   -0.7443   -1.1679 C   0  0  0  0  0  0  0  0  0  0  0  0
   10.8015    0.2790    0.9911 C   0  0  0  0  0  0  0  0  0  0  0  0
    4.5790    1.5558    0.3942 C   0  0  0  0  0  0  0  0  0  0  0  0
    3.6866    0.1069   -1.3185 C   0  0  0  0  0  0  0  0  0  0  0  0
    3.5830    1.2537   -0.5359 C   0  0  0  0  0  0  0  0  0  0  0  0
   12.2345   -0.0701   -2.7006 C   0  0  0  0  0  0  0  0  0  0  0  0
   12.7641   -2.4529   -2.9588 C   0  0  0  0  0  0  0  0  0  0  0  0
  1  3  2  0  0  0  0
  1  4  2  0  0  0  0
  1  7  1  0  0  0  0
  1 22  1  0  0  0  0
  2 19  1  0  0  0  0
  2 21  1  0  0  0  0
  5  8  1  0  0  0  0
  5  9  1  0  0  0  0
  5 12  1  0  0  0  0
  6 10  1  0  0  0  0
  6 11  1  0  0  0  0
  6 14  1  0  0  0  0
  7 29  1  0  0  0  0
  7 30  1  0  0  0  0
  8 10  1  0  0  0  0
  9 11  1  0  0  0  0
 12 13  1  0  0  0  0
 13 15  1  0  0  0  0
 15 16  2  0  0  0  0
 16 17  1  0  0  0  0
 16 18  1  0  0  0  0
 17 19  2  0  0  0  0
 17 20  1  0  0  0  0
 18 21  1  0  0  0  0
 18 24  2  0  0  0  0
 19 23  1  0  0  0  0
 20 22  2  0  0  0  0
 21 26  2  0  0  0  0
 22 25  1  0  0  0  0
 23 25  2  0  0  0  0
 24 27  1  0  0  0  0
 26 28  1  0  0  0  0
 27 28  2  0  0  0  0
M  END
