599
 OpenBabel10141417533D

 16 16  0  0  1  0  0  0  0  0999 V2000
    0.7709   -0.0402   -0.3425 S   0  0  0  0  0  0  0  0  0  0  0  0
    4.6800    2.3418    1.3307 O   0  0  0  0  0  0  0  0  0  0  0  0
    4.4731   -2.3779    1.7468 O   0  0  0  0  0  0  0  0  0  0  0  0
    2.9644    1.1142    0.5540 N   0  0  0  0  0  0  0  0  0  0  0  0
    2.9320   -1.2046    0.6168 N   0  0  0  0  0  0  0  0  0  0  0  0
    5.0266   -0.0629    1.2472 C   0  0  0  0  0  0  0  0  0  0  0  0
    6.0552   -0.1399    0.0370 C   0  0  3  0  0  0  0  0  0  0  0  0
    7.0136   -1.3620    0.1178 C   0  0  0  0  0  0  0  0  0  0  0  0
    5.7847    0.0266    2.6060 C   0  0  0  0  0  0  0  0  0  0  0  0
    4.2226    1.2259    1.0826 C   0  0  0  0  0  0  0  0  0  0  0  0
    4.1407   -1.3038    1.2500 C   0  0  0  0  0  0  0  0  0  0  0  0
    5.3745   -0.0920   -1.3448 C   0  0  0  0  0  0  0  0  0  0  0  0
    8.0385   -1.5087   -1.0157 C   0  0  0  0  0  0  0  0  0  0  0  0
    4.8780    0.1394    3.8331 C   0  0  0  0  0  0  0  0  0  0  0  0
    2.3025   -0.0435    0.3004 C   0  0  0  0  0  0  0  0  0  0  0  0
    9.0045   -0.3401   -1.1239 C   0  0  0  0  0  0  0  0  0  0  0  0
  1 15  2  0  0  0  0
  2 10  2  0  0  0  0
  3 11  2  0  0  0  0
  4 10  1  0  0  0  0
  4 15  1  0  0  0  0
  5 11  1  0  0  0  0
  5 15  1  0  0  0  0
  6  7  1  0  0  0  0
  6  9  1  0  0  0  0
  6 10  1  0  0  0  0
  6 11  1  0  0  0  0
  7  8  1  0  0  0  0
  7 12  1  0  0  0  0
  8 13  1  0  0  0  0
  9 14  1  0  0  0  0
 13 16  1  0  0  0  0
M  END
