
 OpenBabel10141417543D

 11 13  0  0  0  0  0  0  0  0999 V2000
    0.9306   -0.0316    0.0647 P   0  0  0  0  0  0  0  0  0  0  0  0
    0.9423    1.8347    0.9036 S   0  0  0  0  0  0  0  0  0  0  0  0
    2.7106   -0.0316    0.0647 N   0  0  0  0  0  0  0  0  0  0  0  0
   -0.8494   -0.0316    0.0647 N   0  0  0  0  0  0  0  0  0  0  0  0
    0.9423   -0.1218   -1.6652 N   0  0  0  0  0  0  0  0  0  0  0  0
   -1.4763   -0.4963    1.3116 C   0  0  0  0  0  0  0  0  0  0  0  0
   -1.4877   -1.3501    0.0783 C   0  0  0  0  0  0  0  0  0  0  0  0
    3.4513   -1.2092   -0.3807 C   0  0  0  0  0  0  0  0  0  0  0  0
    3.2775   -0.9344    1.0814 C   0  0  0  0  0  0  0  0  0  0  0  0
    1.5038    0.9944   -2.4346 C   0  0  0  0  0  0  0  0  0  0  0  0
    0.0478    0.6548   -2.5397 C   0  0  0  0  0  0  0  0  0  0  0  0
  1  2  2  0  0  0  0
  1  4  1  0  0  0  0
  1  3  1  0  0  0  0
  3  8  1  0  0  0  0
  4  6  1  0  0  0  0
  5  1  1  0  0  0  0
  5 10  1  0  0  0  0
  6  7  1  0  0  0  0
  7  4  1  0  0  0  0
  8  9  1  0  0  0  0
  9  3  1  0  0  0  0
 10 11  1  0  0  0  0
 11  5  1  0  0  0  0
M  END
