1600
 OpenBabel10141417493D

 18 19  0  0  1  0  0  0  0  0999 V2000
    0.2040   -1.2174   -0.5009 S   0  0  0  0  0  0  0  0  0  0  0  0
   -4.1123   -3.7114   -0.3938 O   0  0  0  0  0  0  0  0  0  0  0  0
    2.2771    1.0080   -0.2127 O   0  0  0  0  0  0  0  0  0  0  0  0
   -3.1787   -2.6305   -2.0919 O   0  0  0  0  0  0  0  0  0  0  0  0
   -1.7608   -3.1877   -0.1681 C   0  0  3  0  0  0  0  0  0  0  0  0
   -1.2866   -1.7809    0.1373 C   0  0  0  0  0  0  0  0  0  0  0  0
    0.0486    0.3275    0.2373 C   0  0  0  0  0  0  0  0  0  0  0  0
   -1.8823   -0.8084    0.9178 C   0  0  0  0  0  0  0  0  0  0  0  0
   -1.9085   -4.0229    1.1062 C   0  0  0  0  0  0  0  0  0  0  0  0
   -1.1119    0.3932    0.9855 C   0  0  0  0  0  0  0  0  0  0  0  0
    1.1113    1.3129    0.0447 C   0  0  0  0  0  0  0  0  0  0  0  0
   -3.0460   -3.1309   -0.9816 C   0  0  0  0  0  0  0  0  0  0  0  0
    0.8243    2.7775    0.1702 C   0  0  0  0  0  0  0  0  0  0  0  0
    1.8492    3.6225    0.6267 C   0  0  0  0  0  0  0  0  0  0  0  0
   -0.3953    3.3414   -0.2275 C   0  0  0  0  0  0  0  0  0  0  0  0
    1.6513    5.0036    0.7038 C   0  0  0  0  0  0  0  0  0  0  0  0
   -0.5915    4.7246   -0.1435 C   0  0  0  0  0  0  0  0  0  0  0  0
    0.4300    5.5533    0.3208 C   0  0  0  0  0  0  0  0  0  0  0  0
  1  6  1  0  0  0  0
  1  7  1  0  0  0  0
  2 12  1  0  0  0  0
  3 11  2  0  0  0  0
  4 12  2  0  0  0  0
  5  6  1  0  0  0  0
  5  9  1  0  0  0  0
  5 12  1  0  0  0  0
  6  8  2  0  0  0  0
  7 10  2  0  0  0  0
  7 11  1  0  0  0  0
  8 10  1  0  0  0  0
 11 13  1  0  0  0  0
 13 14  2  0  0  0  0
 13 15  1  0  0  0  0
 14 16  1  0  0  0  0
 15 17  2  0  0  0  0
 16 18  2  0  0  0  0
 17 18  1  0  0  0  0
M  END
