[NO NAME]
 OpenBabel10141417493D
Created with ChemWriter - http://chemwriter.com
 36 40  0  0  1  0  0  0  0  0999 V2000
    4.0732    3.5897    1.1658 N   0  0  0  0  0  0  0  0  0  0  0  0
    4.4750    2.2890    1.1533 C   0  0  0  0  0  0  0  0  0  0  0  0
    4.1128    4.5253    2.2786 C   0  0  2  0  0  0  0  0  0  0  0  0
    3.5671    3.9123   -0.0383 N   0  0  0  0  0  0  0  0  0  0  0  0
    4.3302    1.8816   -0.1567 C   0  0  0  0  0  0  0  0  0  0  0  0
    4.9147    1.5651    2.2059 N   0  0  0  0  0  0  0  0  0  0  0  0
    3.2548    5.7850    2.0200 C   0  0  0  0  0  0  0  0  0  0  0  0
    5.5399    5.0471    2.5585 C   0  0  1  0  0  0  0  0  0  0  0  0
    3.8085    2.9223   -0.8744 N   0  0  0  0  0  0  0  0  0  0  0  0
    4.7067    0.5726   -0.4766 C   0  0  0  0  0  0  0  0  0  0  0  0
    5.1462    0.3013    1.8480 C   0  0  0  0  0  0  0  0  0  0  0  0
    4.2252    6.9719    1.9975 C   0  0  1  0  0  0  0  0  0  0  0  0
    5.3525    6.5296    2.9219 C   0  0  1  0  0  0  0  0  0  0  0  0
    6.2005    4.3652    3.6243 O   0  0  0  0  0  0  0  0  0  0  0  0
    5.0873   -0.2210    0.5853 N   0  0  0  0  0  0  0  0  0  0  0  0
    4.7237   -0.0397   -1.7497 N   0  0  0  0  0  0  0  0  0  0  0  0
    4.6056    7.4209    0.7026 O   0  0  0  0  0  0  0  0  0  0  0  0
    4.9318    6.5885    4.2972 O   0  0  0  0  0  0  0  0  0  0  0  0
    5.5537   -0.7311    3.2252 S   0  0  0  0  0  0  0  0  0  0  0  0
    5.1520   -2.3513    2.5435 C   0  0  0  0  0  0  0  0  0  0  0  0
    5.5210   -3.4184    3.5676 C   0  0  0  0  0  0  0  0  0  0  0  0
    5.5587    6.6962   -0.0780 C   0  0  0  0  0  0  0  0  0  0  0  0
    5.7270    7.4086   -1.4167 C   0  0  0  0  0  0  0  0  0  0  0  0
    6.4895    8.6022   -1.2523 O   0  0  0  0  0  0  0  0  0  0  0  0
    5.2489   -4.8054    3.0131 C   0  0  0  0  0  0  0  0  0  0  0  0
    4.0889    0.4254   -2.9969 C   0  0  1  0  0  0  0  0  0  0  0  0
    3.2189   -0.5615   -3.7911 C   0  0  1  0  0  0  0  0  0  0  0  0
    2.6057    0.6299   -3.1168 C   0  0  0  0  0  0  0  0  0  0  0  0
    3.3073   -0.7389   -5.3173 C   0  0  0  0  0  0  0  0  0  0  0  0
    3.5024    0.2842   -6.2662 C   0  0  0  0  0  0  0  0  0  0  0  0
    3.6160   -0.0015   -7.6394 C   0  0  0  0  0  0  0  0  0  0  0  0
    3.5405   -1.3055   -8.1084 C   0  0  0  0  0  0  0  0  0  0  0  0
    3.3451   -2.3413   -7.2133 C   0  0  0  0  0  0  0  0  0  0  0  0
    3.2155   -2.0527   -5.8461 C   0  0  0  0  0  0  0  0  0  0  0  0
    3.8429    0.9978   -8.5054 F   0  0  0  0  0  0  0  0  0  0  0  0
    3.6863   -1.5775   -9.4135 F   0  0  0  0  0  0  0  0  0  0  0  0
  1  2  1  0  0  0  0
  1  4  1  0  0  0  0
  2  5  2  0  0  0  0
  2  6  1  0  0  0  0
  3  1  1  6  0  0  0
  3  7  1  0  0  0  0
  3  8  1  0  0  0  0
  4  9  2  0  0  0  0
  5 10  1  0  0  0  0
  5  9  1  0  0  0  0
  6 11  2  0  0  0  0
  7 12  1  0  0  0  0
  8 13  1  0  0  0  0
  8 14  1  1  0  0  0
 10 15  2  0  0  0  0
 10 16  1  0  0  0  0
 11 15  1  0  0  0  0
 11 19  1  0  0  0  0
 12 13  1  0  0  0  0
 12 17  1  6  0  0  0
 13 18  1  1  0  0  0
 17 22  1  0  0  0  0
 19 20  1  0  0  0  0
 20 21  1  0  0  0  0
 21 25  1  0  0  0  0
 22 23  1  0  0  0  0
 23 24  1  0  0  0  0
 26 27  1  0  0  0  0
 26 16  1  1  0  0  0
 27 28  1  0  0  0  0
 27 29  1  6  0  0  0
 28 26  1  0  0  0  0
 29 30  2  0  0  0  0
 29 34  1  0  0  0  0
 30 31  1  0  0  0  0
 31 32  2  0  0  0  0
 31 35  1  0  0  0  0
 32 33  1  0  0  0  0
 32 36  1  0  0  0  0
 33 34  2  0  0  0  0
M  END
