208
 OpenBabel10141418023D

 17 19  0  0  1  0  0  0  0  0999 V2000
    2.6051    1.8862   -4.6647 Cl  0  0  0  0  0  0  0  0  0  0  0  0
    6.7659    7.5956   -0.9492 S   0  0  0  0  0  0  0  0  0  0  0  0
    4.2394    3.9079   -1.3507 N   0  0  0  0  0  0  0  0  0  0  0  0
    3.5282    5.0849   -0.7880 C   0  0  0  0  0  0  0  0  0  0  0  0
    5.0594    4.3088   -2.5216 C   0  0  0  0  0  0  0  0  0  0  0  0
    4.4888    6.1403   -0.1998 C   0  0  0  0  0  0  0  0  0  0  0  0
    5.9352    5.4817   -2.1686 C   0  0  0  0  0  0  0  0  0  0  0  0
    5.6461    6.3322   -1.1212 C   0  0  0  0  0  0  0  0  0  0  0  0
    3.2481    2.8809   -1.7291 C   0  0  0  0  0  0  0  0  0  0  0  0
    3.8487    1.5817   -2.2302 C   0  0  0  0  0  0  0  0  0  0  0  0
    7.1262    5.8943   -2.8433 C   0  0  0  0  0  0  0  0  0  0  0  0
    7.6787    7.0272   -2.2820 C   0  0  0  0  0  0  0  0  0  0  0  0
    3.5973    1.0645   -3.5121 C   0  0  0  0  0  0  0  0  0  0  0  0
    4.6776    0.8415   -1.3659 C   0  0  0  0  0  0  0  0  0  0  0  0
    4.1566   -0.1550   -3.9107 C   0  0  0  0  0  0  0  0  0  0  0  0
    5.2346   -0.3754   -1.7678 C   0  0  0  0  0  0  0  0  0  0  0  0
    4.9730   -0.8748   -3.0400 C   0  0  0  0  0  0  0  0  0  0  0  0
  1 13  1  0  0  0  0
  2  8  1  0  0  0  0
  2 12  1  0  0  0  0
  3  4  1  0  0  0  0
  3  5  1  0  0  0  0
  3  9  1  0  0  0  0
  4  6  1  0  0  0  0
  5  7  1  0  0  0  0
  6  8  1  0  0  0  0
  7  8  2  0  0  0  0
  7 11  1  0  0  0  0
  9 10  1  0  0  0  0
 10 13  1  0  0  0  0
 10 14  2  0  0  0  0
 11 12  2  0  0  0  0
 13 15  2  0  0  0  0
 14 16  1  0  0  0  0
 15 17  1  0  0  0  0
 16 17  2  0  0  0  0
M  END
