
 OpenBabel10141417493D

 42 45  0  0  1  0  0  0  0  0999 V2000
   -1.3866    2.4549    0.8881 C   0  0  0  0  0  0  0  0  0  0  0  0
   -2.2663    1.4086    0.5672 C   0  0  0  0  0  0  0  0  0  0  0  0
   -1.8051    0.3377   -0.2087 C   0  0  0  0  0  0  0  0  0  0  0  0
   -0.0472    2.4907    0.4514 C   0  0  0  0  0  0  0  0  0  0  0  0
    0.3939    1.4047   -0.3558 C   0  0  0  0  0  0  0  0  0  0  0  0
   -0.4808    0.3270   -0.6713 C   0  0  0  0  0  0  0  0  0  0  0  0
    0.0317   -0.8652   -1.4175 C   0  0  0  0  0  0  0  0  0  0  0  0
    1.8211    1.3930   -0.8517 C   0  0  0  0  0  0  0  0  0  0  0  0
    2.1770    0.3336   -1.8833 C   0  0  2  0  0  0  0  0  0  0  0  0
    1.5115   -0.9440   -1.5372 C   0  0  0  0  0  0  0  0  0  0  0  0
    2.1518   -2.0557   -1.1501 C   0  0  0  0  0  0  0  0  0  0  0  0
    3.7005    0.2150   -2.0680 C   0  0  0  0  0  0  0  0  0  0  0  0
    4.4862   -0.8811   -1.2783 C   0  0  2  0  0  0  0  0  0  0  0  0
    3.6230   -2.0496   -0.7378 C   0  0  1  0  0  0  0  0  0  0  0  0
    3.5697   -2.1002    0.8229 C   0  0  0  0  0  0  0  0  0  0  0  0
    3.7043   -0.8070    1.5687 C   0  0  0  0  0  0  0  0  0  0  0  0
    4.5818    0.0687    1.0390 C   0  0  0  0  0  0  0  0  0  0  0  0
    5.4272   -0.2477   -0.1907 C   0  0  1  0  0  0  0  0  0  0  0  0
   -3.6055    1.3713    1.0341 N   0  0  0  0  0  0  0  0  0  0  0  0
   -4.3762    2.4684    1.3952 C   0  0  0  0  0  0  0  0  0  0  0  0
   -5.8044    2.1139    1.8546 C   0  0  0  0  0  0  0  0  0  0  0  0
   -6.0766    2.6469    3.2057 N   0  0  0  0  0  0  0  0  0  0  0  0
   -7.4431    2.4031    3.7195 C   0  0  0  0  0  0  0  0  0  0  0  0
   -4.0198    3.6458    1.3105 O   0  0  0  0  0  0  0  0  0  0  0  0
    4.8199    1.3189    1.6136 O   0  0  0  0  0  0  0  0  0  0  0  0
    2.9445   -0.5734    2.8322 C   0  0  0  0  0  0  0  0  0  0  0  0
    2.1185   -1.3330    3.2738 O   0  0  0  0  0  0  0  0  0  0  0  0
    3.1976    0.6103    3.4832 N   0  0  0  0  0  0  0  0  0  0  0  0
    6.6174   -1.0270    0.2493 N   0  0  0  0  0  0  0  0  0  0  0  0
    7.4662   -0.2949    1.2072 C   0  0  0  0  0  0  0  0  0  0  0  0
    7.4781   -1.4615   -0.8575 C   0  0  0  0  0  0  0  0  0  0  0  0
   -0.7025   -1.7726   -1.7953 O   0  0  0  0  0  0  0  0  0  0  0  0
    1.4999   -3.2714   -0.9886 O   0  0  0  0  0  0  0  0  0  0  0  0
    3.3745   -3.1561    1.4237 O   0  0  0  0  0  0  0  0  0  0  0  0
   -2.7042   -0.6666   -0.4964 O   0  0  0  0  0  0  0  0  0  0  0  0
   -8.5201    3.1670    2.9276 C   0  0  0  0  0  0  0  0  0  0  0  0
   -7.7683    0.8990    3.7416 C   0  0  0  0  0  0  0  0  0  0  0  0
   -7.5059    2.9195    5.1727 C   0  0  0  0  0  0  0  0  0  0  0  0
    4.1873   -3.2679   -1.2380 O   0  0  0  0  0  0  0  0  0  0  0  0
    0.8135    3.5578    0.7907 N   0  0  0  0  0  0  0  0  0  0  0  0
    0.2359    4.8802    1.0530 C   0  0  0  0  0  0  0  0  0  0  0  0
    1.9639    3.2411    1.6406 C   0  0  0  0  0  0  0  0  0  0  0  0
  1  2  2  0  0  0  0
  2  3  1  0  0  0  0
  2 19  1  0  0  0  0
  3  6  2  0  0  0  0
  3 35  1  0  0  0  0
  4  1  1  0  0  0  0
  4 40  1  0  0  0  0
  5  6  1  0  0  0  0
  5  4  2  0  0  0  0
  6  7  1  0  0  0  0
  7 10  1  0  0  0  0
  7 32  2  0  0  0  0
  8  5  1  0  0  0  0
  9 10  1  1  0  0  0
  9  8  1  0  0  0  0
 10 11  2  0  0  0  0
 11 14  1  0  0  0  0
 11 33  1  0  0  0  0
 12  9  1  0  0  0  0
 13 12  1  1  0  0  0
 13 14  1  0  0  0  0
 14 15  1  0  0  0  0
 14 39  1  6  0  0  0
 15 16  1  0  0  0  0
 15 34  2  0  0  0  0
 16 17  2  0  0  0  0
 16 26  1  0  0  0  0
 17 18  1  0  0  0  0
 17 25  1  0  0  0  0
 18 13  1  0  0  0  0
 18 29  1  1  0  0  0
 19 20  1  0  0  0  0
 20 21  1  0  0  0  0
 20 24  2  0  0  0  0
 21 22  1  0  0  0  0
 22 23  1  0  0  0  0
 23 36  1  0  0  0  0
 23 37  1  0  0  0  0
 23 38  1  0  0  0  0
 26 27  2  0  0  0  0
 26 28  1  0  0  0  0
 29 30  1  0  0  0  0
 29 31  1  0  0  0  0
 40 41  1  0  0  0  0
 40 42  1  0  0  0  0
M  END
