
 OpenBabel10141419023D

 21 22  0  0  1  0  0  0  0  0999 V2000
    0.7334    0.3996   -1.2914 C   0  0  0  0  0  0  0  0  0  0  0  0
    1.0402   -0.9226   -0.7320 C   0  0  0  0  0  0  0  0  0  0  0  0
   -0.5156    0.4449   -1.7922 N   0  0  0  0  0  0  0  0  0  0  0  0
    0.0662   -1.8272   -0.7718 N   0  0  0  0  0  0  0  0  0  0  0  0
   -1.1867   -1.0548   -1.5522 S   0  0  0  0  0  0  0  0  0  0  0  0
    1.5814    1.4882   -1.3436 N   0  0  0  0  0  0  0  0  0  0  0  0
    2.2191   -1.2610   -0.1308 O   0  0  0  0  0  0  0  0  0  0  0  0
    3.8147   -5.1990   -1.0655 N   0  0  0  0  0  0  0  0  0  0  0  0
    3.0929    3.8962   -0.8580 O   0  0  0  0  0  0  0  0  0  0  0  0
    3.9936   -2.8984   -0.0484 C   0  0  3  0  0  0  0  0  0  0  0  0
    2.4729   -2.6686   -0.0737 C   0  0  0  0  0  0  0  0  0  0  0  0
    4.3296   -4.3998    0.0649 C   0  0  0  0  0  0  0  0  0  0  0  0
    0.9402    2.8239   -1.3385 C   0  0  0  0  0  0  0  0  0  0  0  0
    2.8812    1.4561   -0.6427 C   0  0  0  0  0  0  0  0  0  0  0  0
    4.6330   -2.3523   -1.2132 O   0  0  0  0  0  0  0  0  0  0  0  0
    3.7684    2.6456   -1.0335 C   0  0  0  0  0  0  0  0  0  0  0  0
    1.9357    3.9320   -1.7028 C   0  0  0  0  0  0  0  0  0  0  0  0
    4.0815   -6.6531   -0.9814 C   0  0  0  0  0  0  0  0  0  0  0  0
    3.4623   -7.3135   -2.2328 C   0  0  0  0  0  0  0  0  0  0  0  0
    5.5880   -6.9705   -0.9793 C   0  0  0  0  0  0  0  0  0  0  0  0
    3.4121   -7.2738    0.2562 C   0  0  0  0  0  0  0  0  0  0  0  0
  2  1  1  0  0  0  0
  3  1  2  0  0  0  0
  4  2  2  0  0  0  0
  5  3  1  0  0  0  0
  5  4  1  0  0  0  0
  6  1  1  0  0  0  0
  7  2  1  0  0  0  0
  8 18  1  0  0  0  0
 10 15  1  0  0  0  0
 11  7  1  0  0  0  0
 11 10  1  0  0  0  0
 12  8  1  0  0  0  0
 12 10  1  0  0  0  0
 13  6  1  0  0  0  0
 14  6  1  0  0  0  0
 16  9  1  0  0  0  0
 16 14  1  0  0  0  0
 17  9  1  0  0  0  0
 17 13  1  0  0  0  0
 18 19  1  0  0  0  0
 18 20  1  0  0  0  0
 18 21  1  0  0  0  0
M  END
