911
 OpenBabel10141417523D

 16 16  0  0  0  0  0  0  0  0999 V2000
    0.6432    0.3727   -0.1100 S   0  0  0  0  0  0  0  0  0  0  0  0
    0.3030   -0.0625    1.2258 O   0  0  0  0  0  0  0  0  0  0  0  0
   -0.0439    1.4931   -0.7296 O   0  0  0  0  0  0  0  0  0  0  0  0
   -0.5244   -3.7983    0.4027 O   0  5  0  0  0  0  0  0  0  0  0  0
   -0.8336   -5.7902   -0.4714 O   0  0  0  0  0  0  0  0  0  0  0  0
   -1.2154   -2.6298   -2.0762 N   0  0  0  0  0  0  0  0  0  0  0  0
   -1.6837   -3.7465   -3.9513 N   0  0  0  0  0  0  0  0  0  0  0  0
   -0.8221   -4.5551   -0.5251 N   0  3  0  0  0  0  0  0  0  0  0  0
    0.4480   -1.0240   -1.1978 C   0  0  0  0  0  0  0  0  0  0  0  0
   -1.0025   -1.4823   -1.2041 C   0  0  0  0  0  0  0  0  0  0  0  0
    2.4008    0.6965   -0.1638 C   0  0  0  0  0  0  0  0  0  0  0  0
   -1.5592   -2.5459   -3.4195 C   0  0  0  0  0  0  0  0  0  0  0  0
   -1.1487   -3.9719   -1.7815 C   0  0  0  0  0  0  0  0  0  0  0  0
    2.8102    1.7798    0.8156 C   0  0  0  0  0  0  0  0  0  0  0  0
   -1.4445   -4.6377   -2.9437 C   0  0  0  0  0  0  0  0  0  0  0  0
   -1.7854   -1.2783   -4.1653 C   0  0  0  0  0  0  0  0  0  0  0  0
  1  2  2  0  0  0  0
  1  3  2  0  0  0  0
  1  9  1  0  0  0  0
  1 11  1  0  0  0  0
  4  8  1  0  0  0  0
  5  8  2  0  0  0  0
  6 10  1  0  0  0  0
  6 12  1  0  0  0  0
  6 13  1  0  0  0  0
  7 12  2  0  0  0  0
  7 15  1  0  0  0  0
  8 13  1  0  0  0  0
  9 10  1  0  0  0  0
 11 14  1  0  0  0  0
 12 16  1  0  0  0  0
 13 15  2  0  0  0  0
M  CHG  2   4  -1   8   1
M  END
