1409
 OpenBabel10141417493D

 26 30  0  0  1  0  0  0  0  0999 V2000
    1.1855   -4.5148    0.2166 S   0  0  0  0  0  0  0  0  0  0  0  0
    1.5195   -4.0784    3.9685 S   0  0  0  0  0  0  0  0  0  0  0  0
   -1.8306   -3.8517    4.8107 O   0  0  0  0  0  0  0  0  0  0  0  0
   -1.2507   -3.3703    2.2672 O   0  0  0  0  0  0  0  0  0  0  0  0
   -1.2081   -1.6872    0.7262 O   0  0  0  0  0  0  0  0  0  0  0  0
    1.2651   -0.8771    1.6644 O   0  0  0  0  0  0  0  0  0  0  0  0
   -4.9409   -4.1097    3.9064 N   0  3  0  0  0  0  0  0  0  0  0  0
   -4.0822   -2.8455    4.1705 C   0  0  1  0  0  0  0  0  0  0  0  0
   -3.7816   -5.1373    3.8460 C   0  0  2  0  0  0  0  0  0  0  0  0
   -3.0660   -3.2796    5.2157 C   0  0  1  0  0  0  0  0  0  0  0  0
   -2.8912   -4.7701    5.0183 C   0  0  2  0  0  0  0  0  0  0  0  0
   -3.4231   -2.4104    2.8546 C   0  0  0  0  0  0  0  0  0  0  0  0
   -3.0335   -4.9863    2.5049 C   0  0  0  0  0  0  0  0  0  0  0  0
   -2.6769   -3.5327    2.0952 C   0  0  3  0  0  0  0  0  0  0  0  0
   -5.8397   -4.3830    5.1289 C   0  0  0  0  0  0  0  0  0  0  0  0
   -5.8680   -4.0688    2.7067 C   0  0  0  0  0  0  0  0  0  0  0  0
   -0.6276   -2.3813    1.5521 C   0  0  0  0  0  0  0  0  0  0  0  0
    0.8856   -2.2464    1.9023 C   0  0  0  0  0  0  0  0  0  0  0  0
    1.7561   -3.0779    0.9751 C   0  0  0  0  0  0  0  0  0  0  0  0
    1.1283   -2.4999    3.3850 C   0  0  0  0  0  0  0  0  0  0  0  0
    3.0883   -2.8570    0.6593 C   0  0  0  0  0  0  0  0  0  0  0  0
    1.0612   -1.6017    4.4409 C   0  0  0  0  0  0  0  0  0  0  0  0
    3.6174   -3.8376   -0.2237 C   0  0  0  0  0  0  0  0  0  0  0  0
    1.2472   -2.2234    5.7108 C   0  0  0  0  0  0  0  0  0  0  0  0
    2.6849   -4.7952   -0.5467 C   0  0  0  0  0  0  0  0  0  0  0  0
    1.4846   -3.5725    5.5945 C   0  0  0  0  0  0  0  0  0  0  0  0
  1 19  1  0  0  0  0
  1 25  1  0  0  0  0
  2 20  1  0  0  0  0
  2 26  1  0  0  0  0
  4 14  1  0  0  0  0
  4 17  1  0  0  0  0
  5 17  2  0  0  0  0
  6 18  1  0  0  0  0
  7 15  1  0  0  0  0
  7 16  1  0  0  0  0
  8  7  1  6  0  0  0
  8 10  1  0  0  0  0
  8 12  1  0  0  0  0
  9  7  1  6  0  0  0
  9 11  1  0  0  0  0
  9 13  1  0  0  0  0
 10  3  1  6  0  0  0
 10 11  1  0  0  0  0
 11  3  1  6  0  0  0
 12 14  1  0  0  0  0
 13 14  1  0  0  0  0
 17 18  1  0  0  0  0
 18 19  1  0  0  0  0
 18 20  1  0  0  0  0
 19 21  2  0  0  0  0
 20 22  2  0  0  0  0
 21 23  1  0  0  0  0
 22 24  1  0  0  0  0
 23 25  2  0  0  0  0
 24 26  2  0  0  0  0
M  CHG  1   7   1
M  END
