932
 OpenBabel10141417493D

 42 45  0  0  1  0  0  0  0  0999 V2000
   -5.4420    0.0032    2.0498 S   0  0  0  0  0  0  0  0  0  0  0  0
   -8.3025   -5.8939    0.4861 F   0  0  0  0  0  0  0  0  0  0  0  0
   -7.0036   -5.5542   -1.2232 F   0  0  0  0  0  0  0  0  0  0  0  0
   -6.1908   -6.3932    0.6088 F   0  0  0  0  0  0  0  0  0  0  0  0
   -0.4396    7.5415   -0.0040 O   0  0  0  0  0  0  0  0  0  0  0  0
   -0.9670    4.3121   -2.0200 O   0  0  0  0  0  0  0  0  0  0  0  0
   -2.5291    7.6470    0.8010 O   0  0  0  0  0  0  0  0  0  0  0  0
   -6.2366    0.9769    1.3648 O   0  0  0  0  0  0  0  0  0  0  0  0
   -5.3668   -0.0470    3.5106 O   0  0  0  0  0  0  0  0  0  0  0  0
   -3.8440    0.0881    1.4269 N   0  0  0  0  0  0  0  0  0  0  0  0
   -5.1112   -2.2934    0.7392 N   0  0  0  0  0  0  0  0  0  0  0  0
    0.7956    6.8201   -0.1196 C   0  0  1  0  0  0  0  0  0  0  0  0
    0.6195    5.3596   -0.5758 C   0  0  0  0  0  0  0  0  0  0  0  0
    1.5575    7.6978   -1.1443 C   0  0  0  0  0  0  0  0  0  0  0  0
    1.4123    6.8296    1.3122 C   0  0  0  0  0  0  0  0  0  0  0  0
   -1.8787    5.6412   -0.2795 C   0  0  0  0  0  0  0  0  0  0  0  0
   -0.7615    5.0699   -1.0621 C   0  0  0  0  0  0  0  0  0  0  0  0
    2.8867    7.1910   -1.6972 C   0  0  0  0  0  0  0  0  0  0  0  0
   -3.1098    4.7623   -0.1187 C   0  0  2  0  0  0  0  0  0  0  0  0
    1.6374    8.2095    1.9528 C   0  0  0  0  0  0  0  0  0  0  0  0
   -1.6141    6.8902    0.1460 C   0  0  0  0  0  0  0  0  0  0  0  0
   -4.4785    5.4489    0.1264 C   0  0  0  0  0  0  0  0  0  0  0  0
   -2.8801    3.6505    0.9127 C   0  0  0  0  0  0  0  0  0  0  0  0
    3.4855    8.1980   -2.6571 C   0  0  0  0  0  0  0  0  0  0  0  0
    2.1864    8.0714    3.3684 C   0  0  0  0  0  0  0  0  0  0  0  0
   -4.7323    6.0200    1.5210 C   0  0  0  0  0  0  0  0  0  0  0  0
   -3.3418    2.3496    0.6601 C   0  0  0  0  0  0  0  0  0  0  0  0
   -2.2960    3.9216    2.1627 C   0  0  0  0  0  0  0  0  0  0  0  0
    4.3594    9.1891   -2.1933 C   0  0  0  0  0  0  0  0  0  0  0  0
    3.1511    8.1742   -4.0203 C   0  0  0  0  0  0  0  0  0  0  0  0
   -3.2169    1.3538    1.6311 C   0  0  0  0  0  0  0  0  0  0  0  0
   -2.1616    2.9214    3.1261 C   0  0  0  0  0  0  0  0  0  0  0  0
   -2.6251    1.6354    2.8619 C   0  0  0  0  0  0  0  0  0  0  0  0
    4.9060   10.1221   -3.0774 C   0  0  0  0  0  0  0  0  0  0  0  0
    3.6992    9.1084   -4.9027 C   0  0  0  0  0  0  0  0  0  0  0  0
    4.5791   10.0801   -4.4315 C   0  0  0  0  0  0  0  0  0  0  0  0
   -6.0089   -1.6033    1.4965 C   0  0  0  0  0  0  0  0  0  0  0  0
   -7.2792   -2.0493    1.8286 C   0  0  0  0  0  0  0  0  0  0  0  0
   -7.6483   -3.3163    1.3794 C   0  0  0  0  0  0  0  0  0  0  0  0
   -6.7449   -4.0803    0.6264 C   0  0  0  0  0  0  0  0  0  0  0  0
   -5.5035   -3.5224    0.3363 C   0  0  0  0  0  0  0  0  0  0  0  0
   -7.0611   -5.4609    0.1332 C   0  0  0  0  0  0  0  0  0  0  0  0
  1  8  2  0  0  0  0
  1  9  2  0  0  0  0
  1 10  1  0  0  0  0
  1 37  1  0  0  0  0
  2 42  1  0  0  0  0
  3 42  1  0  0  0  0
  4 42  1  0  0  0  0
  5 12  1  0  0  0  0
  5 21  1  0  0  0  0
  6 17  2  0  0  0  0
  7 21  1  0  0  0  0
 10 31  1  0  0  0  0
 11 37  2  0  0  0  0
 11 41  1  0  0  0  0
 12 13  1  0  0  0  0
 12 15  1  1  0  0  0
 12 14  1  0  0  0  0
 13 17  1  0  0  0  0
 14 18  1  0  0  0  0
 15 20  1  0  0  0  0
 16 17  1  0  0  0  0
 16 21  2  0  0  0  0
 18 24  1  0  0  0  0
 19 23  1  1  0  0  0
 19 22  1  0  0  0  0
 19 16  1  0  0  0  0
 20 25  1  0  0  0  0
 22 26  1  0  0  0  0
 23 27  2  0  0  0  0
 23 28  1  0  0  0  0
 24 29  2  0  0  0  0
 24 30  1  0  0  0  0
 27 31  1  0  0  0  0
 28 32  2  0  0  0  0
 29 34  1  0  0  0  0
 30 35  2  0  0  0  0
 31 33  2  0  0  0  0
 32 33  1  0  0  0  0
 34 36  2  0  0  0  0
 35 36  1  0  0  0  0
 37 38  1  0  0  0  0
 38 39  2  0  0  0  0
 39 40  1  0  0  0  0
 40 41  2  0  0  0  0
 40 42  1  0  0  0  0
M  END
