
 OpenBabel10141417493D

 32 34  0  0  1  0  0  0  0  0999 V2000
   -2.7715   -2.8176    5.1166 C   0  0  2  0  0  0  0  0  0  0  0  0
   -3.2869   -3.1466    6.5223 C   0  0  2  0  0  0  0  0  0  0  0  0
   -2.1763   -2.9972    7.5980 C   0  0  1  0  0  0  0  0  0  0  0  0
   -0.8892   -3.7436    7.1431 C   0  0  2  0  0  0  0  0  0  0  0  0
   -0.4639   -3.3611    5.7019 C   0  0  2  0  0  0  0  0  0  0  0  0
   -1.5899   -3.5690    4.8594 O   0  0  0  0  0  0  0  0  0  0  0  0
   -2.6038   -1.3103    4.8507 C   0  0  0  0  0  0  0  0  0  0  0  0
   -2.1523   -1.0664    3.5120 O   0  0  0  0  0  0  0  0  0  0  0  0
   -3.7718   -4.5056    6.5257 O   0  0  0  0  0  0  0  0  0  0  0  0
   -1.9650   -1.5830    7.9539 N   0  0  0  0  0  0  0  0  0  0  0  0
   -1.1787   -5.1653    7.1789 O   0  0  0  0  0  0  0  0  0  0  0  0
    0.6063   -4.2582    5.3046 O   0  0  0  0  0  0  0  0  0  0  0  0
    1.1919   -4.0226    3.9739 C   0  0  1  0  0  0  0  0  0  0  0  0
    2.3171   -5.0744    3.7523 C   0  0  1  0  0  0  0  0  0  0  0  0
    2.7446   -5.1699    2.2801 C   0  0  0  0  0  0  0  0  0  0  0  0
    1.5750   -5.6572    1.4290 C   0  0  1  0  0  0  0  0  0  0  0  0
    0.4020   -4.6694    1.4907 C   0  0  2  0  0  0  0  0  0  0  0  0
    0.1031   -4.1093    2.8854 C   0  0  2  0  0  0  0  0  0  0  0  0
    3.5031   -4.7897    4.5809 N   0  0  0  0  0  0  0  0  0  0  0  0
    1.9979   -5.8512    0.0294 N   0  0  0  0  0  0  0  0  0  0  0  0
   -0.4315   -2.7857    2.6829 O   0  0  0  0  0  0  0  0  0  0  0  0
   -0.7979   -5.1819    0.8468 O   0  0  0  0  0  0  0  0  0  0  0  0
   -1.3478   -6.4263    1.3278 C   0  0  1  0  0  0  0  0  0  0  0  0
   -1.7157   -6.3448    2.7038 O   0  0  0  0  0  0  0  0  0  0  0  0
   -2.2311   -7.5351    3.3074 C   0  0  1  0  0  0  0  0  0  0  0  0
   -3.4867   -7.9857    2.5463 C   0  0  2  0  0  0  0  0  0  0  0  0
   -3.2133   -8.1260    1.0487 C   0  0  0  0  0  0  0  0  0  0  0  0
   -2.5684   -6.8598    0.4457 C   0  0  1  0  0  0  0  0  0  0  0  0
   -1.1537   -8.6309    3.4487 C   0  0  0  0  0  0  0  0  0  0  0  0
   -0.0270   -8.1680    4.2712 N   0  0  0  0  0  0  0  0  0  0  0  0
   -4.5329   -7.0168    2.7365 O   0  0  0  0  0  0  0  0  0  0  0  0
   -3.5954   -5.8124    0.2613 N   0  0  0  0  0  0  0  0  0  0  0  0
  1  2  1  0  0  0  0
  1  6  1  0  0  0  0
  1  7  1  1  0  0  0
  2  3  1  0  0  0  0
  2  9  1  6  0  0  0
  3  4  1  0  0  0  0
  3 10  1  6  0  0  0
  4  5  1  0  0  0  0
  4 11  1  6  0  0  0
  5  6  1  0  0  0  0
  5 12  1  6  0  0  0
  7  8  1  0  0  0  0
 13 14  1  0  0  0  0
 13 18  1  0  0  0  0
 13 12  1  1  0  0  0
 14 15  1  0  0  0  0
 14 19  1  1  0  0  0
 15 16  1  0  0  0  0
 16 17  1  0  0  0  0
 16 20  1  6  0  0  0
 17 18  1  0  0  0  0
 17 22  1  1  0  0  0
 18 21  1  6  0  0  0
 23 24  1  0  0  0  0
 23 28  1  0  0  0  0
 23 22  1  6  0  0  0
 24 25  1  0  0  0  0
 25 26  1  0  0  0  0
 25 29  1  6  0  0  0
 26 27  1  0  0  0  0
 26 31  1  6  0  0  0
 27 28  1  0  0  0  0
 28 32  1  1  0  0  0
 29 30  1  0  0  0  0
M  END
