5502
 OpenBabel10141417483D

 28 30  0  0  1  0  0  0  0  0999 V2000
    1.1725    2.2048   -1.3318 O   0  0  0  0  0  0  0  0  0  0  0  0
    2.7774   -0.1860   -1.2808 O   0  0  0  0  0  0  0  0  0  0  0  0
   -0.7249   -7.5658   -2.1910 O   0  0  0  0  0  0  0  0  0  0  0  0
   -0.6881   -7.0556    0.4086 O   0  0  0  0  0  0  0  0  0  0  0  0
   -1.5391   -2.0077   -5.3890 N   0  0  0  0  0  0  0  0  0  0  0  0
   -1.4336   -2.9713   -4.3894 N   0  0  0  0  0  0  0  0  0  0  0  0
   -2.3650   -0.3358   -3.7056 C   0  0  3  0  0  0  0  0  0  0  0  0
   -1.0500   -0.2867   -2.9561 C   0  0  0  0  0  0  0  0  0  0  0  0
   -3.5224   -1.0733   -3.0159 C   0  0  0  0  0  0  0  0  0  0  0  0
   -0.2208   -1.4113   -2.8929 C   0  0  0  0  0  0  0  0  0  0  0  0
   -2.0437   -0.8483   -5.1093 C   0  0  0  0  0  0  0  0  0  0  0  0
   -0.5959    0.9251   -2.4085 C   0  0  0  0  0  0  0  0  0  0  0  0
   -0.7780   -2.7361   -3.2922 C   0  0  0  0  0  0  0  0  0  0  0  0
    1.0629   -1.3111   -2.3511 C   0  0  0  0  0  0  0  0  0  0  0  0
   -3.8883   -0.4605   -1.6685 C   0  0  0  0  0  0  0  0  0  0  0  0
    0.6767    1.0320   -1.8313 C   0  0  0  0  0  0  0  0  0  0  0  0
    1.5081   -0.1030   -1.7965 C   0  0  0  0  0  0  0  0  0  0  0  0
   -2.1652    0.1511   -6.2388 C   0  0  0  0  0  0  0  0  0  0  0  0
   -0.6879   -3.8576   -2.2892 C   0  0  0  0  0  0  0  0  0  0  0  0
   -0.7091   -5.1842   -2.7376 C   0  0  0  0  0  0  0  0  0  0  0  0
   -0.6696   -3.6003   -0.9131 C   0  0  0  0  0  0  0  0  0  0  0  0
   -0.6769   -6.2439   -1.8199 C   0  0  0  0  0  0  0  0  0  0  0  0
   -0.6419   -4.6525    0.0059 C   0  0  0  0  0  0  0  0  0  0  0  0
   -0.6432   -5.9764   -0.4384 C   0  0  0  0  0  0  0  0  0  0  0  0
    0.3541    3.3653   -1.3682 C   0  0  0  0  0  0  0  0  0  0  0  0
    3.1033    0.6941   -0.2110 C   0  0  0  0  0  0  0  0  0  0  0  0
   -0.1298   -7.8781   -3.4452 C   0  0  0  0  0  0  0  0  0  0  0  0
   -0.0120   -6.9136    1.6521 C   0  0  0  0  0  0  0  0  0  0  0  0
  1 16  1  0  0  0  0
  1 25  1  0  0  0  0
  2 17  1  0  0  0  0
  2 26  1  0  0  0  0
  3 22  1  0  0  0  0
  3 27  1  0  0  0  0
  4 24  1  0  0  0  0
  4 28  1  0  0  0  0
  5  6  1  0  0  0  0
  5 11  2  0  0  0  0
  6 13  2  0  0  0  0
  7  8  1  0  0  0  0
  7  9  1  0  0  0  0
  7 11  1  0  0  0  0
  8 10  1  0  0  0  0
  8 12  2  0  0  0  0
  9 15  1  0  0  0  0
 10 13  1  0  0  0  0
 10 14  2  0  0  0  0
 11 18  1  0  0  0  0
 12 16  1  0  0  0  0
 13 19  1  0  0  0  0
 14 17  1  0  0  0  0
 16 17  2  0  0  0  0
 19 20  2  0  0  0  0
 19 21  1  0  0  0  0
 20 22  1  0  0  0  0
 21 23  2  0  0  0  0
 22 24  2  0  0  0  0
 23 24  1  0  0  0  0
M  END
