839
 OpenBabel10141417503D

 21 22  0  0  0  0  0  0  0  0999 V2000
    1.4214    2.6922    1.3404 S   0  0  0  0  0  0  0  0  0  0  0  0
   -1.4205    1.5752    1.7746 O   0  0  0  0  0  0  0  0  0  0  0  0
    2.5093    2.9507    0.4145 O   0  0  0  0  0  0  0  0  0  0  0  0
    1.4222    1.5234    2.1840 O   0  0  0  0  0  0  0  0  0  0  0  0
   -1.9177    3.1439   -1.3875 N   0  0  0  0  0  0  0  0  0  0  0  0
   -2.1589    2.4140   -0.1939 N   0  0  0  0  0  0  0  0  0  0  0  0
    0.0438    2.7653    0.4377 N   0  0  0  0  0  0  0  0  0  0  0  0
   -2.4140    5.3414   -3.8001 C   0  0  0  0  0  0  0  0  0  0  0  0
   -2.7552    3.9617   -4.3497 C   0  0  0  0  0  0  0  0  0  0  0  0
   -2.0938    5.4266   -2.3100 C   0  0  0  0  0  0  0  0  0  0  0  0
   -1.7992    2.8587   -3.9102 C   0  0  0  0  0  0  0  0  0  0  0  0
   -2.7487    4.3617   -1.4293 C   0  0  0  0  0  0  0  0  0  0  0  0
   -2.1290    2.2587   -2.5418 C   0  0  0  0  0  0  0  0  0  0  0  0
   -1.1822    2.1975    0.7558 C   0  0  0  0  0  0  0  0  0  0  0  0
    1.3167    4.1232    2.3906 C   0  0  0  0  0  0  0  0  0  0  0  0
    0.2544    5.0253    2.2875 C   0  0  0  0  0  0  0  0  0  0  0  0
    2.3524    4.3513    3.3012 C   0  0  0  0  0  0  0  0  0  0  0  0
    1.2688    6.4092    4.0019 C   0  0  0  0  0  0  0  0  0  0  0  0
    0.2290    6.1584    3.0991 C   0  0  0  0  0  0  0  0  0  0  0  0
    2.3244    5.4932    4.1062 C   0  0  0  0  0  0  0  0  0  0  0  0
    1.2154    7.6367    4.8623 C   0  0  0  0  0  0  0  0  0  0  0  0
  1  3  2  0  0  0  0
  1  4  2  0  0  0  0
  1  7  1  0  0  0  0
  1 15  1  0  0  0  0
  2 14  2  0  0  0  0
  5  6  1  0  0  0  0
  5 12  1  0  0  0  0
  5 13  1  0  0  0  0
  6 14  1  0  0  0  0
  7 14  1  0  0  0  0
  8  9  1  0  0  0  0
  8 10  1  0  0  0  0
  9 11  1  0  0  0  0
 10 12  1  0  0  0  0
 11 13  1  0  0  0  0
 15 16  2  0  0  0  0
 15 17  1  0  0  0  0
 16 19  1  0  0  0  0
 17 20  2  0  0  0  0
 18 19  2  0  0  0  0
 18 20  1  0  0  0  0
 18 21  1  0  0  0  0
M  END
