1124
 OpenBabel10141417543D

 18 18  0  0  0  0  0  0  0  0999 V2000
    1.7940   -0.0748    0.7962 S   0  0  0  0  0  0  0  0  0  0  0  0
    3.0776    0.4373    1.2368 O   0  0  0  0  0  0  0  0  0  0  0  0
    1.7140   -0.9994   -0.3115 O   0  0  0  0  0  0  0  0  0  0  0  0
   -1.0600    0.2317   -0.1736 O   0  0  0  0  0  0  0  0  0  0  0  0
   -0.9506    2.5135   -0.1148 N   0  0  0  0  0  0  0  0  0  0  0  0
    0.8778    1.2754    0.4775 N   0  0  0  0  0  0  0  0  0  0  0  0
   -3.1195    3.5132    0.5222 C   0  0  0  0  0  0  0  0  0  0  0  0
   -2.3224    2.7321   -0.5246 C   0  0  0  0  0  0  0  0  0  0  0  0
   -3.2089    2.7715    1.8586 C   0  0  0  0  0  0  0  0  0  0  0  0
    0.9901   -0.7811    2.2136 C   0  0  0  0  0  0  0  0  0  0  0  0
   -4.0208    3.5421    2.8881 C   0  0  0  0  0  0  0  0  0  0  0  0
   -0.4312    1.2583    0.0351 C   0  0  0  0  0  0  0  0  0  0  0  0
   -0.0022   -1.7457    2.0322 C   0  0  0  0  0  0  0  0  0  0  0  0
    1.3763   -0.3947    3.5008 C   0  0  0  0  0  0  0  0  0  0  0  0
   -0.2921   -1.8927    4.4387 C   0  0  0  0  0  0  0  0  0  0  0  0
   -0.6415   -2.2970    3.1435 C   0  0  0  0  0  0  0  0  0  0  0  0
    0.7303   -0.9485    4.6096 C   0  0  0  0  0  0  0  0  0  0  0  0
   -0.9672   -2.5041    5.6318 C   0  0  0  0  0  0  0  0  0  0  0  0
  1  2  2  0  0  0  0
  1  3  2  0  0  0  0
  1  6  1  0  0  0  0
  1 10  1  0  0  0  0
  4 12  2  0  0  0  0
  5  8  1  0  0  0  0
  5 12  1  0  0  0  0
  6 12  1  0  0  0  0
  7  8  1  0  0  0  0
  7  9  1  0  0  0  0
  9 11  1  0  0  0  0
 10 13  2  0  0  0  0
 10 14  1  0  0  0  0
 13 16  1  0  0  0  0
 14 17  2  0  0  0  0
 15 16  2  0  0  0  0
 15 17  1  0  0  0  0
 15 18  1  0  0  0  0
M  END
