323
 OpenBabel10141417543D

 20 21  0  0  0  0  0  0  0  0999 V2000
    1.2345    0.1783    0.2275 O   0  0  0  0  0  0  0  0  0  0  0  0
    2.8893    4.5151   -1.8161 O   0  0  0  0  0  0  0  0  0  0  0  0
    5.1229    3.8396   -3.1351 O   0  0  0  0  0  0  0  0  0  0  0  0
    6.6275   -0.0225   -2.7006 O   0  5  0  0  0  0  0  0  0  0  0  0
    6.8255    1.9652   -3.6074 O   0  0  0  0  0  0  0  0  0  0  0  0
    6.2421    1.1393   -2.8888 N   0  3  0  0  0  0  0  0  0  0  0  0
    3.1996    1.0281   -0.7011 C   0  0  0  0  0  0  0  0  0  0  0  0
    3.1408   -1.0119    0.9272 C   0  0  0  0  0  0  0  0  0  0  0  0
    2.4596    0.0679    0.1583 C   0  0  0  0  0  0  0  0  0  0  0  0
    4.3460    0.6408   -1.4015 C   0  0  0  0  0  0  0  0  0  0  0  0
    2.7003    2.3297   -0.8521 C   0  0  0  0  0  0  0  0  0  0  0  0
    5.0183    1.5717   -2.2123 C   0  0  0  0  0  0  0  0  0  0  0  0
    3.3690    3.2419   -1.6706 C   0  0  0  0  0  0  0  0  0  0  0  0
    4.3129   -3.0648    2.4590 C   0  0  0  0  0  0  0  0  0  0  0  0
    4.4439   -0.8713    1.4198 C   0  0  0  0  0  0  0  0  0  0  0  0
    2.4265   -2.1829    1.2084 C   0  0  0  0  0  0  0  0  0  0  0  0
    4.5342    2.8784   -2.3553 C   0  0  0  0  0  0  0  0  0  0  0  0
    5.0294   -1.8986    2.1679 C   0  0  0  0  0  0  0  0  0  0  0  0
    3.0107   -3.2036    1.9644 C   0  0  0  0  0  0  0  0  0  0  0  0
    4.9265   -4.1602    3.2822 C   0  0  0  0  0  0  0  0  0  0  0  0
  1  9  2  0  0  0  0
  2 13  1  0  0  0  0
  3 17  1  0  0  0  0
  4  6  1  0  0  0  0
  5  6  2  0  0  0  0
  6 12  1  0  0  0  0
  7  9  1  0  0  0  0
  7 10  2  0  0  0  0
  7 11  1  0  0  0  0
  8  9  1  0  0  0  0
  8 15  2  0  0  0  0
  8 16  1  0  0  0  0
 10 12  1  0  0  0  0
 11 13  2  0  0  0  0
 12 17  2  0  0  0  0
 13 17  1  0  0  0  0
 14 18  2  0  0  0  0
 14 19  1  0  0  0  0
 14 20  1  0  0  0  0
 15 18  1  0  0  0  0
 16 19  2  0  0  0  0
M  CHG  2   4  -1   6   1
M  END
