273
 OpenBabel10141417493D

 22 24  0  0  1  0  0  0  0  0999 V2000
   -4.1290   -3.7146   -1.9499 S   0  0  0  0  0  0  0  0  0  0  0  0
    1.3110   -4.6665   -3.0270 O   0  0  0  0  0  0  0  0  0  0  0  0
    0.7344   -2.6482   -1.0789 O   0  0  0  0  0  0  0  0  0  0  0  0
    0.0124   -4.8385   -1.0789 O   0  0  0  0  0  0  0  0  0  0  0  0
    1.0541   -2.8005   -5.1741 O   0  0  0  0  0  0  0  0  0  0  0  0
    2.5244   -1.8848   -3.5885 O   0  0  0  0  0  0  0  0  0  0  0  0
   -2.5470   -4.0100   -2.0948 O   0  0  0  0  0  0  0  0  0  0  0  0
   -4.4045   -2.4260   -2.5334 O   0  0  0  0  0  0  0  0  0  0  0  0
   -4.5667   -4.0734   -0.6233 O   0  0  0  0  0  0  0  0  0  0  0  0
   -4.8254   -4.8267   -2.9861 N   0  0  0  0  0  0  0  0  0  0  0  0
    0.1462   -3.8345   -3.1440 C   0  0  1  0  0  0  0  0  0  0  0  0
    0.3545   -2.5521   -3.9457 C   0  0  1  0  0  0  0  0  0  0  0  0
   -0.1939   -3.5537   -1.6870 C   0  0  1  0  0  0  0  0  0  0  0  0
    1.1879   -1.5096   -3.2447 C   0  0  1  0  0  0  0  0  0  0  0  0
    0.9297   -1.4065   -1.7472 C   0  0  0  0  0  0  0  0  0  0  0  0
    1.0719   -5.4372   -1.8391 C   0  0  0  0  0  0  0  0  0  0  0  0
    2.4059   -2.3604   -4.9422 C   0  0  0  0  0  0  0  0  0  0  0  0
   -1.6471   -3.1149   -1.4518 C   0  0  0  0  0  0  0  0  0  0  0  0
    0.6358   -6.8437   -2.2367 C   0  0  0  0  0  0  0  0  0  0  0  0
    2.3460   -5.4802   -1.0047 C   0  0  0  0  0  0  0  0  0  0  0  0
    3.3858   -3.5002   -5.1884 C   0  0  0  0  0  0  0  0  0  0  0  0
    2.7008   -1.2114   -5.9107 C   0  0  0  0  0  0  0  0  0  0  0  0
  1  7  1  0  0  0  0
  1  8  2  0  0  0  0
  1  9  2  0  0  0  0
  1 10  1  0  0  0  0
  2 16  1  0  0  0  0
  3 13  1  0  0  0  0
  3 15  1  0  0  0  0
  4 13  1  0  0  0  0
  4 16  1  0  0  0  0
  5 17  1  0  0  0  0
  6 17  1  0  0  0  0
  7 18  1  0  0  0  0
 11  2  1  6  0  0  0
 11 12  1  0  0  0  0
 11 13  1  0  0  0  0
 12  5  1  6  0  0  0
 12 14  1  0  0  0  0
 13 18  1  6  0  0  0
 14  6  1  1  0  0  0
 14 15  1  0  0  0  0
 16 19  1  0  0  0  0
 16 20  1  0  0  0  0
 17 21  1  0  0  0  0
 17 22  1  0  0  0  0
M  END
