1030
 OpenBabel10141417493D

 31 35  0  0  1  0  0  0  0  0999 V2000
    1.0135   -2.0281   -1.8076 O   0  0  0  0  0  0  0  0  0  0  0  0
    3.9998   -1.8931   -1.7102 O   0  0  0  0  0  0  0  0  0  0  0  0
    0.8638   -0.0351   -5.4779 O   0  0  0  0  0  0  0  0  0  0  0  0
    1.3181   -1.4417    0.3364 O   0  0  0  0  0  0  0  0  0  0  0  0
    3.0481    9.6650   -3.0389 O   0  0  0  0  0  0  0  0  0  0  0  0
    2.1881    1.6409   -4.6112 N   0  0  0  0  0  0  0  0  0  0  0  0
    3.9286    4.2899   -2.9806 N   0  0  0  0  0  0  0  0  0  0  0  0
    2.7402    9.6996   -5.7316 N   0  0  0  0  0  0  0  0  0  0  0  0
    3.1230   -0.8597   -1.2398 C   0  0  2  0  0  0  0  0  0  0  0  0
    2.8102    0.0332   -2.4349 C   0  0  0  0  0  0  0  0  0  0  0  0
    3.0200    2.1074   -3.6278 C   0  0  0  0  0  0  0  0  0  0  0  0
    1.9089    2.7138   -5.5966 C   0  0  0  0  0  0  0  0  0  0  0  0
    1.9652   -0.4286   -3.3829 C   0  0  0  0  0  0  0  0  0  0  0  0
    2.5835    3.9078   -4.9687 C   0  0  0  0  0  0  0  0  0  0  0  0
    3.2979    3.5054   -3.8519 C   0  0  0  0  0  0  0  0  0  0  0  0
    3.3709    1.3623   -2.5691 C   0  0  0  0  0  0  0  0  0  0  0  0
    1.6202    0.3925   -4.5969 C   0  0  0  0  0  0  0  0  0  0  0  0
    3.8341   -0.1430   -0.0649 C   0  0  0  0  0  0  0  0  0  0  0  0
    1.2891   -1.7463   -3.2024 C   0  0  0  0  0  0  0  0  0  0  0  0
    1.7510   -1.4598   -0.8128 C   0  0  0  0  0  0  0  0  0  0  0  0
    2.5033    5.2657   -5.2207 C   0  0  0  0  0  0  0  0  0  0  0  0
    3.0784    6.1759   -4.2820 C   0  0  0  0  0  0  0  0  0  0  0  0
    3.7868    5.5991   -3.1794 C   0  0  0  0  0  0  0  0  0  0  0  0
    2.9380    7.5982   -4.3266 C   0  0  0  0  0  0  0  0  0  0  0  0
    4.2106   -1.0288    1.1207 C   0  0  0  0  0  0  0  0  0  0  0  0
    2.3236    8.2854   -5.5399 C   0  0  0  0  0  0  0  0  0  0  0  0
    4.3161    6.4003   -2.1910 C   0  0  0  0  0  0  0  0  0  0  0  0
    3.3413    8.3376   -3.1963 C   0  0  0  0  0  0  0  0  0  0  0  0
    4.0680    7.7623   -2.1670 C   0  0  0  0  0  0  0  0  0  0  0  0
    4.1903    9.8140   -5.9847 C   0  0  0  0  0  0  0  0  0  0  0  0
    2.0325   10.2766   -6.8836 C   0  0  0  0  0  0  0  0  0  0  0  0
  1 19  1  0  0  0  0
  1 20  1  0  0  0  0
  3 17  2  0  0  0  0
  4 20  2  0  0  0  0
  5 28  1  0  0  0  0
  6 11  1  0  0  0  0
  6 12  1  0  0  0  0
  6 17  1  0  0  0  0
  7 15  2  0  0  0  0
  7 23  1  0  0  0  0
  8 26  1  0  0  0  0
  8 30  1  0  0  0  0
  8 31  1  0  0  0  0
  9  2  1  6  0  0  0
  9 10  1  0  0  0  0
  9 18  1  0  0  0  0
  9 20  1  0  0  0  0
 10 13  2  0  0  0  0
 10 16  1  0  0  0  0
 11 15  1  0  0  0  0
 11 16  2  0  0  0  0
 12 14  1  0  0  0  0
 13 17  1  0  0  0  0
 13 19  1  0  0  0  0
 14 15  1  0  0  0  0
 14 21  2  0  0  0  0
 18 25  1  0  0  0  0
 21 22  1  0  0  0  0
 22 23  2  0  0  0  0
 22 24  1  0  0  0  0
 23 27  1  0  0  0  0
 24 26  1  0  0  0  0
 24 28  2  0  0  0  0
 27 29  2  0  0  0  0
 28 29  1  0  0  0  0
M  END
