214
 OpenBabel10141417493D

 24 25  0  0  0  0  0  0  0  0999 V2000
    1.1656   -0.0720    0.9224 S   0  0  0  0  0  0  0  0  0  0  0  0
    0.6892    1.2965    0.8223 O   0  0  0  0  0  0  0  0  0  0  0  0
    0.7386   -1.0731   -0.0226 O   0  0  0  0  0  0  0  0  0  0  0  0
    0.2603   -0.6488    4.6138 O   0  0  0  0  0  0  0  0  0  0  0  0
    0.9366    1.3309    3.7043 N   0  0  0  0  0  0  0  0  0  0  0  0
    3.0774    2.4390    0.5785 N   0  0  0  0  0  0  0  0  0  0  0  0
    0.7258   -0.6248    2.4142 N   0  0  0  0  0  0  0  0  0  0  0  0
    4.9544   -1.3653    0.7787 N   0  0  0  0  0  0  0  0  0  0  0  0
    0.8286    2.1271    4.9234 C   0  0  0  0  0  0  0  0  0  0  0  0
    2.9299   -0.0291    0.8721 C   0  0  0  0  0  0  0  0  0  0  0  0
    3.6657    1.1466    0.6395 C   0  0  0  0  0  0  0  0  0  0  0  0
    3.5062    3.5588   -0.1825 C   0  0  0  0  0  0  0  0  0  0  0  0
    1.8305    3.2756    4.8726 C   0  0  0  0  0  0  0  0  0  0  0  0
   -0.5830    2.6790    5.1258 C   0  0  0  0  0  0  0  0  0  0  0  0
    0.6333    0.0093    3.6462 C   0  0  0  0  0  0  0  0  0  0  0  0
    3.6071   -1.2446    0.8943 C   0  0  0  0  0  0  0  0  0  0  0  0
    5.0642    1.0266    0.5620 C   0  0  0  0  0  0  0  0  0  0  0  0
    4.1660    3.4322   -1.4125 C   0  0  0  0  0  0  0  0  0  0  0  0
    4.5194    4.5606   -2.1689 C   0  0  0  0  0  0  0  0  0  0  0  0
    3.1634    4.8424    0.2605 C   0  0  0  0  0  0  0  0  0  0  0  0
    5.6544   -0.2246    0.6257 C   0  0  0  0  0  0  0  0  0  0  0  0
    4.1786    5.8326   -1.6984 C   0  0  0  0  0  0  0  0  0  0  0  0
    3.5044    5.9731   -0.4867 C   0  0  0  0  0  0  0  0  0  0  0  0
    5.2360    4.4115   -3.4784 C   0  0  0  0  0  0  0  0  0  0  0  0
  1  2  2  0  0  0  0
  1  3  2  0  0  0  0
  1  7  1  0  0  0  0
  1 10  1  0  0  0  0
  4 15  2  0  0  0  0
  5  9  1  0  0  0  0
  5 15  1  0  0  0  0
  6 11  1  0  0  0  0
  6 12  1  0  0  0  0
  7 15  1  0  0  0  0
  8 16  2  0  0  0  0
  8 21  1  0  0  0  0
  9 13  1  0  0  0  0
  9 14  1  0  0  0  0
 10 11  2  0  0  0  0
 10 16  1  0  0  0  0
 11 17  1  0  0  0  0
 12 18  1  0  0  0  0
 12 20  2  0  0  0  0
 17 21  2  0  0  0  0
 18 19  2  0  0  0  0
 19 22  1  0  0  0  0
 19 24  1  0  0  0  0
 20 23  1  0  0  0  0
 22 23  2  0  0  0  0
M  END
