
 OpenBabel10141417503D

 54 62  0  0  1  0  0  0  0  0999 V2000
    0.0812   -1.3371    5.5653 O   0  0  0  0  0  0  0  0  0  0  0  0
    1.6057    0.5497    0.5908 O   0  0  0  0  0  0  0  0  0  0  0  0
   -1.6419   -1.0476    3.9213 O   0  0  0  0  0  0  0  0  0  0  0  0
    0.0617    0.7258   -1.1639 O   0  0  0  0  0  0  0  0  0  0  0  0
    2.1404   -0.2758    2.7728 C   0  0  0  0  0  0  0  0  0  0  0  0
    1.9118   -0.5629    4.1455 C   0  0  0  0  0  0  0  0  0  0  0  0
    0.5874   -0.8389    4.4035 C   0  0  0  0  0  0  0  0  0  0  0  0
    1.1159   -0.0568    1.7976 C   0  0  0  0  0  0  0  0  0  0  0  0
   -0.4163   -0.6913    3.4303 C   0  0  0  0  0  0  0  0  0  0  0  0
   -0.2131   -0.2507    2.1242 C   0  0  0  0  0  0  0  0  0  0  0  0
   -1.2582   -1.6790    5.1498 C   0  0  0  0  0  0  0  0  0  0  0  0
   -1.3554   -0.0400    1.1869 C   0  0  0  0  0  0  0  0  0  0  0  0
    0.9895    1.1835   -0.4808 C   0  0  0  0  0  0  0  0  0  0  0  0
    1.6640    2.4918   -0.7489 C   0  0  0  0  0  0  0  0  0  0  0  0
    3.5602   -0.1826    2.3615 C   0  0  2  0  0  0  0  0  0  0  0  0
    3.1168   -0.6612    5.1780 C   0  0  1  0  0  0  0  0  0  0  0  0
    4.4972   -0.7255    4.5313 N   0  0  3  0  0  0  0  0  0  0  0  0
    4.3233   -1.3111    3.1703 C   0  0  2  0  0  0  0  0  0  0  0  0
    3.6558   -2.8528    3.3473 C   0  0  2  0  0  0  0  0  0  0  0  0
    5.5297   -1.5582    5.2097 C   0  0  2  0  0  0  0  0  0  0  0  0
    5.4202   -3.1191    4.9933 C   0  0  1  0  0  0  0  0  0  0  0  0
    4.0257   -3.3686    4.6849 N   0  0  0  0  0  0  0  0  0  0  0  0
   -0.2562    5.7093    6.2593 C   0  0  0  0  0  0  0  0  0  0  0  0
   -1.0539    4.7220    6.8177 C   0  0  0  0  0  0  0  0  0  0  0  0
   -0.8076    3.3825    6.5377 C   0  0  0  0  0  0  0  0  0  0  0  0
    0.2383    3.0459    5.6581 C   0  0  0  0  0  0  0  0  0  0  0  0
    1.1499    4.0125    5.1575 C   0  0  0  0  0  0  0  0  0  0  0  0
    0.8662    5.3594    5.4802 C   0  0  0  0  0  0  0  0  0  0  0  0
    1.7889    6.4547    5.0296 C   0  0  0  0  0  0  0  0  0  0  0  0
    2.5416    3.6036    4.5085 C   0  0  2  0  0  0  0  0  0  0  0  0
    3.3315    4.8010    4.0668 N   0  0  0  0  0  0  0  0  0  0  0  0
    3.2202    5.9315    4.9878 C   0  0  0  0  0  0  0  0  0  0  0  0
   -2.0806    5.0488    7.6623 O   0  0  0  0  0  0  0  0  0  0  0  0
   -1.5891    2.4950    7.2302 O   0  0  0  0  0  0  0  0  0  0  0  0
   -1.5317    1.1431    6.8309 C   0  0  0  0  0  0  0  0  0  0  0  0
    3.1311    0.4378    6.2766 C   0  0  0  0  0  0  0  0  0  0  0  0
    2.5761    1.6297    5.7525 O   0  0  0  0  0  0  0  0  0  0  0  0
    4.0671    1.7185    2.6417 S   0  0  0  0  0  0  0  0  0  0  0  0
    2.4418    2.6459    3.2391 C   0  0  0  0  0  0  0  0  0  0  0  0
    3.3319    2.7481    5.5544 C   0  0  0  0  0  0  0  0  0  0  0  0
    3.1492   -3.9882    5.6312 C   0  0  0  0  0  0  0  0  0  0  0  0
    4.4099    2.9739    6.0750 O   0  0  0  0  0  0  0  0  0  0  0  0
    5.5757   -1.2711    6.5979 O   0  0  0  0  0  0  0  0  0  0  0  0
    5.4853   -4.4327    2.7405 C   0  0  0  0  0  0  0  0  0  0  0  0
    3.6632   -6.2076    1.5114 C   0  0  0  0  0  0  0  0  0  0  0  0
    3.2826   -4.8971    1.8827 C   0  0  0  0  0  0  0  0  0  0  0  0
    5.9071   -5.6850    2.2646 C   0  0  0  0  0  0  0  0  0  0  0  0
    5.0022   -6.5992    1.6680 C   0  0  0  0  0  0  0  0  0  0  0  0
    5.5216   -7.9821    1.3938 C   0  0  0  0  0  0  0  0  0  0  0  0
    2.5743   -7.0045    1.2412 O   0  0  0  0  0  0  0  0  0  0  0  0
    1.9481   -4.5633    1.8070 O   0  0  0  0  0  0  0  0  0  0  0  0
    2.6727   -8.0590    0.3000 C   0  0  0  0  0  0  0  0  0  0  0  0
    4.1703   -3.9921    2.4818 C   0  0  0  0  0  0  0  0  0  0  0  0
    6.3025   -3.6649    3.7914 C   0  0  0  0  0  0  0  0  0  0  0  0
  1  7  1  0  0  0  0
  1 11  1  0  0  0  0
  2 13  1  0  0  0  0
  2  8  1  0  0  0  0
  3  9  1  0  0  0  0
  3 11  1  0  0  0  0
  4 13  2  0  0  0  0
  5  8  2  0  0  0  0
  5  6  1  0  0  0  0
  6  7  2  0  0  0  0
  7  9  1  0  0  0  0
  8 10  1  0  0  0  0
  9 10  2  0  0  0  0
 10 12  1  0  0  0  0
 13 14  1  0  0  0  0
 15  5  1  1  0  0  0
 15 38  1  0  0  0  0
 16  6  1  6  0  0  0
 16 17  1  0  0  0  0
 16 36  1  0  0  0  0
 17 20  1  0  0  0  0
 18 15  1  1  0  0  0
 18 17  1  0  0  0  0
 19 18  1  0  0  0  0
 19 22  1  1  0  0  0
 19 53  1  0  0  0  0
 20 21  1  0  0  0  0
 20 43  1  1  0  0  0
 21 22  1  6  0  0  0
 21 54  1  0  0  0  0
 22 41  1  0  0  0  0
 23 24  2  0  0  0  0
 23 28  1  0  0  0  0
 24 25  1  0  0  0  0
 24 33  1  0  0  0  0
 25 26  2  0  0  0  0
 25 34  1  0  0  0  0
 26 27  1  0  0  0  0
 27 28  2  0  0  0  0
 29 28  1  0  0  0  0
 29 32  1  0  0  0  0
 30 27  1  1  0  0  0
 30 31  1  0  0  0  0
 30 39  1  0  0  0  0
 30 40  1  0  0  0  0
 31 32  1  0  0  0  0
 34 35  1  0  0  0  0
 36 37  1  0  0  0  0
 37 40  1  0  0  0  0
 39 38  1  0  0  0  0
 40 42  2  0  0  0  0
 44 47  2  0  0  0  0
 45 46  1  0  0  0  0
 45 48  2  0  0  0  0
 45 50  1  0  0  0  0
 46 53  2  0  0  0  0
 46 51  1  0  0  0  0
 47 48  1  0  0  0  0
 48 49  1  0  0  0  0
 50 52  1  0  0  0  0
 53 44  1  0  0  0  0
 54 44  1  0  0  0  0
M  END
