193
 OpenBabel10141417483D

 19 20  0  0  1  0  0  0  0  0999 V2000
    2.5609    0.8156   -0.9300 O   0  0  0  0  0  0  0  0  0  0  0  0
   -1.6343   -2.0667   -1.4880 O   0  0  0  0  0  0  0  0  0  0  0  0
    5.4676   -1.8579    0.6161 N   0  0  0  0  0  0  0  0  0  0  0  0
    3.0942   -0.8658    0.7551 C   0  0  2  0  0  0  0  0  0  0  0  0
    2.2392    0.4083    0.4147 C   0  0  1  0  0  0  0  0  0  0  0  0
    2.9584   -1.2085    2.2501 C   0  0  0  0  0  0  0  0  0  0  0  0
    2.6563    1.5811    1.3248 C   0  0  0  0  0  0  0  0  0  0  0  0
    3.3615   -0.0501    3.1578 C   0  0  0  0  0  0  0  0  0  0  0  0
    2.6389    1.2470    2.8170 C   0  0  0  0  0  0  0  0  0  0  0  0
    4.5845   -0.7054    0.3198 C   0  0  0  0  0  0  0  0  0  0  0  0
    0.7274    0.1213    0.3929 C   0  0  0  0  0  0  0  0  0  0  0  0
    0.2383   -0.8367   -0.5113 C   0  0  0  0  0  0  0  0  0  0  0  0
   -0.2269    0.7870    1.1852 C   0  0  0  0  0  0  0  0  0  0  0  0
    5.0475   -3.0663   -0.0959 C   0  0  0  0  0  0  0  0  0  0  0  0
    6.8495   -1.5269    0.2501 C   0  0  0  0  0  0  0  0  0  0  0  0
   -1.1159   -1.1463   -0.6180 C   0  0  0  0  0  0  0  0  0  0  0  0
   -1.5810    0.4542    1.1210 C   0  0  0  0  0  0  0  0  0  0  0  0
   -2.0293   -0.5157    0.2307 C   0  0  0  0  0  0  0  0  0  0  0  0
   -0.8759   -2.2687   -2.6797 C   0  0  0  0  0  0  0  0  0  0  0  0
  2 16  1  0  0  0  0
  2 19  1  0  0  0  0
  3 10  1  0  0  0  0
  3 14  1  0  0  0  0
  3 15  1  0  0  0  0
  4  5  1  0  0  0  0
  4  6  1  0  0  0  0
  4 10  1  1  0  0  0
  5  7  1  0  0  0  0
  5 11  1  1  0  0  0
  5  1  1  0  0  0  0
  6  8  1  0  0  0  0
  7  9  1  0  0  0  0
  8  9  1  0  0  0  0
 11 12  2  0  0  0  0
 11 13  1  0  0  0  0
 12 16  1  0  0  0  0
 13 17  2  0  0  0  0
 16 18  2  0  0  0  0
 17 18  1  0  0  0  0
M  END
