752
 OpenBabel10141417493D

 10 11  0  0  1  0  0  0  0  0999 V2000
    2.2588   -0.8210   -1.3124 N   0  0  0  0  0  0  0  0  0  0  0  0
    3.5041   -0.5389    0.9642 C   0  0  3  0  0  0  0  0  0  0  0  0
    2.3069   -0.3179    0.0625 C   0  0  1  0  0  0  0  0  0  0  0  0
    3.2248    0.8238    0.3733 C   0  0  0  0  0  0  0  0  0  0  0  0
    4.6964   -1.3524    0.5130 C   0  0  0  0  0  0  0  0  0  0  0  0
    5.9645   -0.7749    0.3344 C   0  0  0  0  0  0  0  0  0  0  0  0
    4.5831   -2.7362    0.2934 C   0  0  0  0  0  0  0  0  0  0  0  0
    7.0640   -1.5376   -0.0694 C   0  0  0  0  0  0  0  0  0  0  0  0
    5.6780   -3.5048   -0.1102 C   0  0  0  0  0  0  0  0  0  0  0  0
    6.9191   -2.9032   -0.2943 C   0  0  0  0  0  0  0  0  0  0  0  0
  2  3  1  0  0  0  0
  2  4  1  0  0  0  0
  2  5  1  0  0  0  0
  3  4  1  0  0  0  0
  3  1  1  6  0  0  0
  5  6  2  0  0  0  0
  5  7  1  0  0  0  0
  6  8  1  0  0  0  0
  7  9  2  0  0  0  0
  8 10  2  0  0  0  0
  9 10  1  0  0  0  0
M  END
