519
 OpenBabel10141417503D

 31 33  0  0  1  0  0  0  0  0999 V2000
   -2.9783   -3.5564   -0.6489 O   0  0  0  0  0  0  0  0  0  0  0  0
   -5.9156   -0.3602   -0.7331 O   0  0  0  0  0  0  0  0  0  0  0  0
   -8.0534   -1.0435   -0.7656 O   0  0  0  0  0  0  0  0  0  0  0  0
   -1.7468    1.7002   -2.1995 O   0  0  0  0  0  0  0  0  0  0  0  0
   -1.4235    1.3231    0.0418 O   0  0  0  0  0  0  0  0  0  0  0  0
   -4.9973   -2.8401   -0.1803 N   0  0  0  0  0  0  0  0  0  0  0  0
   -3.3488   -0.6875   -1.9573 N   0  0  0  0  0  0  0  0  0  0  0  0
   -6.1973   -4.6444    0.7583 C   0  0  1  0  0  0  0  0  0  0  0  0
   -5.0089   -3.7213    1.0207 C   0  0  2  0  0  0  0  0  0  0  0  0
   -7.2047   -3.7065    0.0890 C   0  0  0  0  0  0  0  0  0  0  0  0
   -6.3457   -2.7623   -0.7431 C   0  0  1  0  0  0  0  0  0  0  0  0
   -6.7220   -5.3576    1.9950 C   0  0  0  0  0  0  0  0  0  0  0  0
   -5.1362   -2.8623    2.2814 C   0  0  0  0  0  0  0  0  0  0  0  0
   -6.8417   -4.4529    3.2178 C   0  0  0  0  0  0  0  0  0  0  0  0
   -5.5498   -3.6895    3.4896 C   0  0  0  0  0  0  0  0  0  0  0  0
   -3.9044   -2.8998   -0.9823 C   0  0  0  0  0  0  0  0  0  0  0  0
   -6.8637   -1.3243   -0.7145 C   0  0  0  0  0  0  0  0  0  0  0  0
   -3.9246   -2.0136   -2.2642 C   0  0  2  0  0  0  0  0  0  0  0  0
   -3.3529   -2.8042   -3.4039 C   0  0  0  0  0  0  0  0  0  0  0  0
   -1.9618   -0.5931   -1.4340 C   0  0  1  0  0  0  0  0  0  0  0  0
   -0.7632   -1.0103   -2.3504 C   0  0  0  0  0  0  0  0  0  0  0  0
   -1.7097    0.9146   -1.0761 C   0  0  0  0  0  0  0  0  0  0  0  0
   -0.4751   -2.4561   -2.8354 C   0  0  0  0  0  0  0  0  0  0  0  0
   -0.4773   -3.6382   -1.8612 C   0  0  0  0  0  0  0  0  0  0  0  0
   -1.0135    2.9292   -2.0769 C   0  0  0  0  0  0  0  0  0  0  0  0
   -0.6364   -4.9653   -2.3303 C   0  0  0  0  0  0  0  0  0  0  0  0
   -0.4164   -3.4708   -0.4670 C   0  0  0  0  0  0  0  0  0  0  0  0
   -0.7965   -6.0498   -1.4441 C   0  0  0  0  0  0  0  0  0  0  0  0
   -0.6180   -4.5506    0.4180 C   0  0  0  0  0  0  0  0  0  0  0  0
   -1.8634    4.0540   -1.5214 C   0  0  0  0  0  0  0  0  0  0  0  0
   -0.8248   -5.8369   -0.0693 C   0  0  0  0  0  0  0  0  0  0  0  0
  1 16  2  0  0  0  0
  2 17  1  0  0  0  0
  3 17  2  0  0  0  0
  4 22  1  0  0  0  0
  4 25  1  0  0  0  0
  5 22  2  0  0  0  0
  6 11  1  0  0  0  0
  6 16  1  0  0  0  0
  8  9  1  0  0  0  0
  8 10  1  6  0  0  0
  8 12  1  0  0  0  0
  9  6  1  6  0  0  0
  9 13  1  0  0  0  0
 10 11  1  0  0  0  0
 11 17  1  1  0  0  0
 12 14  1  0  0  0  0
 13 15  1  0  0  0  0
 14 15  1  0  0  0  0
 16 18  1  0  0  0  0
 18  7  1  1  0  0  0
 18 19  1  0  0  0  0
 20  7  1  6  0  0  0
 20 21  1  0  0  0  0
 20 22  1  0  0  0  0
 21 23  1  0  0  0  0
 23 24  1  0  0  0  0
 24 26  2  0  0  0  0
 24 27  1  0  0  0  0
 25 30  1  0  0  0  0
 26 28  1  0  0  0  0
 27 29  2  0  0  0  0
 28 31  2  0  0  0  0
 29 31  1  0  0  0  0
M  END
