755
 OpenBabel10141417493D

 22 22  0  0  0  0  0  0  0  0999 V2000
   11.8924   -2.4880   -1.8169 O   0  0  0  0  0  0  0  0  0  0  0  0
   10.2924   -2.1563   -0.2956 O   0  0  0  0  0  0  0  0  0  0  0  0
   -0.0081   -3.6003   -3.1579 C   0  0  0  0  0  0  0  0  0  0  0  0
   -0.7025   -3.4404   -4.5374 C   0  0  0  0  0  0  0  0  0  0  0  0
   -1.2334   -2.0343   -4.7548 C   0  0  0  0  0  0  0  0  0  0  0  0
    0.9146   -2.3956   -2.8475 C   0  0  0  0  0  0  0  0  0  0  0  0
   -0.0857   -1.0366   -4.7119 C   0  0  0  0  0  0  0  0  0  0  0  0
    0.8777   -1.2444   -3.5629 C   0  0  0  0  0  0  0  0  0  0  0  0
   -1.0926   -3.7394   -2.0639 C   0  0  0  0  0  0  0  0  0  0  0  0
    0.7923   -4.9227   -3.2277 C   0  0  0  0  0  0  0  0  0  0  0  0
    1.8027   -2.5771   -1.7017 C   0  0  0  0  0  0  0  0  0  0  0  0
    1.7482   -0.0320   -3.3334 C   0  0  0  0  0  0  0  0  0  0  0  0
    3.1462   -2.5371   -1.7440 C   0  0  0  0  0  0  0  0  0  0  0  0
    4.0332   -2.7545   -0.6010 C   0  0  0  0  0  0  0  0  0  0  0  0
    3.3741   -3.1164    0.7116 C   0  0  0  0  0  0  0  0  0  0  0  0
    5.3794   -2.6648   -0.6447 C   0  0  0  0  0  0  0  0  0  0  0  0
    6.2233   -2.3300   -1.7757 C   0  0  0  0  0  0  0  0  0  0  0  0
    7.5647   -2.2747   -1.6907 C   0  0  0  0  0  0  0  0  0  0  0  0
    8.4807   -1.9272   -2.7766 C   0  0  0  0  0  0  0  0  0  0  0  0
    7.8662   -1.5486   -4.1050 C   0  0  0  0  0  0  0  0  0  0  0  0
    9.8254   -1.9178   -2.6642 C   0  0  0  0  0  0  0  0  0  0  0  0
   10.6297   -2.1902   -1.4579 C   0  0  0  0  0  0  0  0  0  0  0  0
  1 22  1  0  0  0  0
  2 22  2  0  0  0  0
  3  4  1  0  0  0  0
  3  6  1  0  0  0  0
  3  9  1  0  0  0  0
  3 10  1  0  0  0  0
  4  5  1  0  0  0  0
  5  7  1  0  0  0  0
  6  8  2  0  0  0  0
  6 11  1  0  0  0  0
  7  8  1  0  0  0  0
  8 12  1  0  0  0  0
 11 13  2  3  0  0  0
 13 14  1  0  0  0  0
 14 15  1  0  0  0  0
 14 16  2  3  0  0  0
 16 17  1  0  0  0  0
 17 18  2  3  0  0  0
 18 19  1  0  0  0  0
 19 20  1  0  0  0  0
 19 21  2  3  0  0  0
 21 22  1  0  0  0  0
M  END
