897
 OpenBabel10141417493D

 23 26  0  0  0  0  0  0  0  0999 V2000
    0.9958   -0.3078    0.7224 Cl  0  0  0  0  0  0  0  0  0  0  0  0
    4.7889   -1.1187   -3.2273 Cl  0  0  0  0  0  0  0  0  0  0  0  0
    6.8957    0.0266    0.1313 N   0  0  0  0  0  0  0  0  0  0  0  0
    6.6132   -2.9974   -0.0316 N   0  0  0  0  0  0  0  0  0  0  0  0
    9.0129   -0.4997    0.4552 N   0  0  0  0  0  0  0  0  0  0  0  0
    8.9623    0.7822   -0.0160 N   0  0  0  0  0  0  0  0  0  0  0  0
    5.4824   -0.0643    0.2109 C   0  0  0  0  0  0  0  0  0  0  0  0
    4.8155   -1.2898    0.0100 C   0  0  0  0  0  0  0  0  0  0  0  0
    7.7813   -0.9584    0.5120 C   0  0  0  0  0  0  0  0  0  0  0  0
    5.4998   -2.5287   -0.4830 C   0  0  0  0  0  0  0  0  0  0  0  0
    7.3407   -2.2805    1.0079 C   0  0  0  0  0  0  0  0  0  0  0  0
    7.7011    1.0917   -0.2406 C   0  0  0  0  0  0  0  0  0  0  0  0
    4.7391    1.0773    0.5553 C   0  0  0  0  0  0  0  0  0  0  0  0
    4.8413   -3.3169   -1.5679 C   0  0  0  0  0  0  0  0  0  0  0  0
    3.4211   -1.3552    0.1813 C   0  0  0  0  0  0  0  0  0  0  0  0
    3.3523    1.0008    0.7058 C   0  0  0  0  0  0  0  0  0  0  0  0
    2.7011   -0.2139    0.5236 C   0  0  0  0  0  0  0  0  0  0  0  0
    7.2545    2.3386   -0.9055 C   0  0  0  0  0  0  0  0  0  0  0  0
    4.4671   -2.7615   -2.7991 C   0  0  0  0  0  0  0  0  0  0  0  0
    4.6177   -4.6801   -1.3218 C   0  0  0  0  0  0  0  0  0  0  0  0
    3.8394   -3.5645   -3.7573 C   0  0  0  0  0  0  0  0  0  0  0  0
    3.9921   -5.4741   -2.2833 C   0  0  0  0  0  0  0  0  0  0  0  0
    3.5976   -4.9152   -3.4975 C   0  0  0  0  0  0  0  0  0  0  0  0
  1 17  1  0  0  0  0
  2 19  1  0  0  0  0
  3  7  1  0  0  0  0
  3  9  1  0  0  0  0
  3 12  1  0  0  0  0
  4 10  2  0  0  0  0
  4 11  1  0  0  0  0
  5  6  1  0  0  0  0
  5  9  2  0  0  0  0
  6 12  2  0  0  0  0
  7  8  2  0  0  0  0
  7 13  1  0  0  0  0
  8 10  1  0  0  0  0
  8 15  1  0  0  0  0
  9 11  1  0  0  0  0
 10 14  1  0  0  0  0
 12 18  1  0  0  0  0
 13 16  2  0  0  0  0
 14 19  1  0  0  0  0
 14 20  2  0  0  0  0
 15 17  2  0  0  0  0
 16 17  1  0  0  0  0
 19 21  2  0  0  0  0
 20 22  1  0  0  0  0
 21 23  1  0  0  0  0
 22 23  2  0  0  0  0
M  END
