620
 OpenBabel10141417493D

 28 31  0  0  1  0  0  0  0  0999 V2000
    5.0302   -0.3619   -6.6478 F   0  0  0  0  0  0  0  0  0  0  0  0
    2.0251   -5.2295   -5.4990 O   0  0  0  0  0  0  0  0  0  0  0  0
    2.5041    0.4086   -5.7654 O   0  0  0  0  0  0  0  0  0  0  0  0
    4.1907   -6.2810   -4.5763 O   0  0  0  0  0  0  0  0  0  0  0  0
    4.0161   -4.4952   -8.3198 O   0  0  0  0  0  0  0  0  0  0  0  0
    0.6980   -3.5981   -7.2993 O   0  0  0  0  0  0  0  0  0  0  0  0
    7.4330    2.3114   -1.2566 O   0  0  0  0  0  0  0  0  0  0  0  0
    3.4430   -3.1911   -5.2776 C   0  0  1  0  0  0  0  0  0  0  0  0
    4.9505   -3.0089   -5.5441 C   0  0  2  0  0  0  0  0  0  0  0  0
    5.5663   -1.7698   -4.8639 C   0  0  1  0  0  0  0  0  0  0  0  0
    4.7915   -0.4778   -5.2887 C   0  0  1  0  0  0  0  0  0  0  0  0
    3.1700   -4.5407   -6.0208 C   0  0  1  0  0  0  0  0  0  0  0  0
    2.7353   -1.9422   -5.8138 C   0  0  0  0  0  0  0  0  0  0  0  0
    5.5399   -4.3818   -5.2241 C   0  0  0  0  0  0  0  0  0  0  0  0
    3.2452   -0.6508   -5.1531 C   0  0  2  0  0  0  0  0  0  0  0  0
    4.4482   -5.3837   -5.6641 C   0  0  1  0  0  0  0  0  0  0  0  0
    5.3919    0.8237   -4.5892 C   0  0  1  0  0  0  0  0  0  0  0  0
    7.0724   -1.6684   -5.2312 C   0  0  0  0  0  0  0  0  0  0  0  0
    3.0919   -3.3442   -3.7695 C   0  0  0  0  0  0  0  0  0  0  0  0
    7.6022   -0.2377   -5.3528 C   0  0  0  0  0  0  0  0  0  0  0  0
    6.9016    0.6319   -4.3525 C   0  0  0  0  0  0  0  0  0  0  0  0
    3.0416   -4.4163   -7.5667 C   0  0  0  0  0  0  0  0  0  0  0  0
    5.2243    2.0482   -5.5237 C   0  0  0  0  0  0  0  0  0  0  0  0
    4.7162    1.2127   -3.2718 C   0  0  0  0  0  0  0  0  0  0  0  0
    7.5605    1.1032   -3.2787 C   0  0  0  0  0  0  0  0  0  0  0  0
    1.6401   -4.2182   -8.1585 C   0  0  0  0  0  0  0  0  0  0  0  0
    5.3677    1.6656   -2.1896 C   0  0  0  0  0  0  0  0  0  0  0  0
    6.8436    1.7674   -2.1691 C   0  0  0  0  0  0  0  0  0  0  0  0
  5 22  2  0  0  0  0
  6 26  1  0  0  0  0
  7 28  2  0  0  0  0
  8  9  1  0  0  0  0
  8 12  1  0  0  0  0
  8 13  1  0  0  0  0
  8 19  1  6  0  0  0
  9 10  1  0  0  0  0
  9 14  1  6  0  0  0
 10 11  1  0  0  0  0
 10 18  1  1  0  0  0
 11 15  1  0  0  0  0
 11 17  1  0  0  0  0
 11  1  1  1  0  0  0
 12 16  1  0  0  0  0
 12 22  1  6  0  0  0
 12  2  1  0  0  0  0
 13 15  1  0  0  0  0
 14 16  1  0  0  0  0
 15  3  1  6  0  0  0
 16  4  1  1  0  0  0
 17 21  1  0  0  0  0
 17 24  1  0  0  0  0
 17 23  1  6  0  0  0
 18 20  1  0  0  0  0
 20 21  1  0  0  0  0
 21 25  2  0  0  0  0
 22 26  1  0  0  0  0
 24 27  2  0  0  0  0
 25 28  1  0  0  0  0
 27 28  1  0  0  0  0
M  END
