1021
 OpenBabel10141417503D

 20 21  0  0  1  0  0  0  0  0999 V2000
    2.7845    0.3191   -1.8927 Cl  0  0  0  0  0  0  0  0  0  0  0  0
    1.3729    0.3429    0.6567 Cl  0  0  0  0  0  0  0  0  0  0  0  0
    1.0080   -7.2658   -0.4743 Cl  0  0  0  0  0  0  0  0  0  0  0  0
    5.5227   -2.9835    0.1790 S   0  0  0  0  0  0  0  0  0  0  0  0
    4.0587   -8.2285    0.0096 S   0  0  0  0  0  0  0  0  0  0  0  0
    6.5643   -3.3242   -0.7618 O   0  0  0  0  0  0  0  0  0  0  0  0
    5.7789   -2.7795    1.5862 O   0  0  0  0  0  0  0  0  0  0  0  0
    3.5153   -8.8002    1.2173 O   0  0  0  0  0  0  0  0  0  0  0  0
    3.8746   -8.7992   -1.3033 O   0  0  0  0  0  0  0  0  0  0  0  0
    4.7687   -1.6177   -0.4134 N   0  0  0  0  0  0  0  0  0  0  0  0
    2.5705   -2.4371   -0.3060 N   0  0  0  0  0  0  0  0  0  0  0  0
    5.7264   -8.2301    0.2462 N   0  0  0  0  0  0  0  0  0  0  0  0
    3.4654   -1.3964    0.1956 C   0  0  3  0  0  0  0  0  0  0  0  0
    4.2535   -4.1933    0.0502 C   0  0  0  0  0  0  0  0  0  0  0  0
    2.9347   -3.7749   -0.1331 C   0  0  0  0  0  0  0  0  0  0  0  0
    4.6130   -5.5437    0.0996 C   0  0  0  0  0  0  0  0  0  0  0  0
    3.6252   -6.5210   -0.0486 C   0  0  0  0  0  0  0  0  0  0  0  0
    2.9530    0.0418   -0.1290 C   0  0  0  0  0  0  0  0  0  0  0  0
    1.9683   -4.7747   -0.3151 C   0  0  0  0  0  0  0  0  0  0  0  0
    2.2991   -6.1401   -0.2592 C   0  0  0  0  0  0  0  0  0  0  0  0
  1 18  1  0  0  0  0
  2 18  1  0  0  0  0
  3 20  1  0  0  0  0
  4  6  2  0  0  0  0
  4  7  2  0  0  0  0
  4 10  1  0  0  0  0
  4 14  1  0  0  0  0
  5  8  2  0  0  0  0
  5  9  2  0  0  0  0
  5 12  1  0  0  0  0
  5 17  1  0  0  0  0
 10 13  1  0  0  0  0
 11 13  1  0  0  0  0
 11 15  1  0  0  0  0
 13 18  1  0  0  0  0
 14 15  1  0  0  0  0
 14 16  2  0  0  0  0
 15 19  2  0  0  0  0
 16 17  1  0  0  0  0
 17 20  2  0  0  0  0
 19 20  1  0  0  0  0
M  END
