
 OpenBabel10141417483D

 17 18  0  0  0  0  0  0  0  0999 V2000
    2.3214   -0.6200   -0.5111 O   0  0  0  0  0  0  0  0  0  0  0  0
    2.0231   -1.3051   -1.6692 C   0  0  0  0  0  0  0  0  0  0  0  0
    3.6157   -0.1833   -0.3242 C   0  0  0  0  0  0  0  0  0  0  0  0
    0.8787   -0.9426   -2.3895 C   0  0  0  0  0  0  0  0  0  0  0  0
    4.0687   -0.1195    0.9974 C   0  0  0  0  0  0  0  0  0  0  0  0
    0.5442   -1.6160   -3.5653 C   0  0  0  0  0  0  0  0  0  0  0  0
    5.3622    0.2989    1.2941 C   0  0  0  0  0  0  0  0  0  0  0  0
    2.7984   -2.3897   -2.0976 C   0  0  0  0  0  0  0  0  0  0  0  0
    4.4571    0.2366   -1.3591 C   0  0  0  0  0  0  0  0  0  0  0  0
    1.3501   -2.6627   -4.0094 C   0  0  0  0  0  0  0  0  0  0  0  0
    6.2077    0.6733    0.2528 C   0  0  0  0  0  0  0  0  0  0  0  0
   -0.1425    0.3447   -1.8590 Cl  0  0  0  0  0  0  0  0  0  0  0  0
    3.2572   -0.4684    2.0404 O   0  0  0  0  0  0  0  0  0  0  0  0
    2.4700   -3.0575   -3.2783 C   0  0  0  0  0  0  0  0  0  0  0  0
    5.7603    0.6510   -1.0697 C   0  0  0  0  0  0  0  0  0  0  0  0
    0.9581   -3.4792   -5.4719 Cl  0  0  0  0  0  0  0  0  0  0  0  0
    7.8169    1.1760    0.5965 Cl  0  0  0  0  0  0  0  0  0  0  0  0
  2  1  1  0  0  0  0
  3  1  1  0  0  0  0
  4  2  2  0  0  0  0
  5  3  1  0  0  0  0
  6  4  1  0  0  0  0
  6 10  2  0  0  0  0
  7  5  2  0  0  0  0
  7 11  1  0  0  0  0
  8  2  1  0  0  0  0
  9  3  2  0  0  0  0
 10 14  1  0  0  0  0
 11 15  2  0  0  0  0
 12  4  1  0  0  0  0
 13  5  1  0  0  0  0
 14  8  2  0  0  0  0
 15  9  1  0  0  0  0
 16 10  1  0  0  0  0
 17 11  1  0  0  0  0
M  END
