831
 OpenBabel10141417483D

 28 31  0  0  0  0  0  0  0  0999 V2000
   -2.1410   -1.6527   -0.7878 S   0  0  0  0  0  0  0  0  0  0  0  0
   -0.3915    1.6755    4.8464 F   0  0  0  0  0  0  0  0  0  0  0  0
   -2.2840    0.7798    5.4174 F   0  0  0  0  0  0  0  0  0  0  0  0
   -0.4402   -0.3559    5.6204 F   0  0  0  0  0  0  0  0  0  0  0  0
   -0.2846    5.1147    1.6512 N   0  0  0  0  0  0  0  0  0  0  0  0
   -2.0563    7.1744    3.0072 N   0  0  0  0  0  0  0  0  0  0  0  0
   -0.5627    1.0297   -0.1704 N   0  0  0  0  0  0  0  0  0  0  0  0
   -1.1961    4.7823    2.7697 C   0  0  0  0  0  0  0  0  0  0  0  0
    0.0988    6.5431    1.8082 C   0  0  0  0  0  0  0  0  0  0  0  0
   -0.8873    4.8727    0.3250 C   0  0  0  0  0  0  0  0  0  0  0  0
   -2.4027    5.7399    2.9281 C   0  0  0  0  0  0  0  0  0  0  0  0
   -1.1003    7.5202    1.9351 C   0  0  0  0  0  0  0  0  0  0  0  0
   -1.2997    3.4165    0.0369 C   0  0  0  0  0  0  0  0  0  0  0  0
   -0.1255    2.4320    0.0935 C   0  0  0  0  0  0  0  0  0  0  0  0
   -1.5126    7.5173    4.3217 C   0  0  0  0  0  0  0  0  0  0  0  0
   -1.0353    0.2677    0.9466 C   0  0  0  0  0  0  0  0  0  0  0  0
   -0.6498    0.6133   -1.5396 C   0  0  0  0  0  0  0  0  0  0  0  0
   -1.7377   -0.9446    0.7896 C   0  0  0  0  0  0  0  0  0  0  0  0
   -1.3138   -0.5736   -1.9251 C   0  0  0  0  0  0  0  0  0  0  0  0
   -0.8121    0.6774    2.2857 C   0  0  0  0  0  0  0  0  0  0  0  0
   -0.0394    1.3418   -2.5902 C   0  0  0  0  0  0  0  0  0  0  0  0
   -1.2931   -0.0294    3.4069 C   0  0  0  0  0  0  0  0  0  0  0  0
   -2.1914   -1.6765    1.9058 C   0  0  0  0  0  0  0  0  0  0  0  0
   -1.3720   -0.9721   -3.2788 C   0  0  0  0  0  0  0  0  0  0  0  0
   -1.9829   -1.2168    3.2031 C   0  0  0  0  0  0  0  0  0  0  0  0
   -0.0960    0.9361   -3.9316 C   0  0  0  0  0  0  0  0  0  0  0  0
   -0.7667   -0.2175   -4.2782 C   0  0  0  0  0  0  0  0  0  0  0  0
   -1.0973    0.5118    4.8029 C   0  0  0  0  0  0  0  0  0  0  0  0
  1 18  1  0  0  0  0
  1 19  1  0  0  0  0
  2 28  1  0  0  0  0
  3 28  1  0  0  0  0
  4 28  1  0  0  0  0
  5  8  1  0  0  0  0
  5  9  1  0  0  0  0
  5 10  1  0  0  0  0
  6 11  1  0  0  0  0
  6 12  1  0  0  0  0
  6 15  1  0  0  0  0
  7 14  1  0  0  0  0
  7 16  1  0  0  0  0
  7 17  1  0  0  0  0
  8 11  1  0  0  0  0
  9 12  1  0  0  0  0
 10 13  1  0  0  0  0
 13 14  1  0  0  0  0
 16 18  2  0  0  0  0
 16 20  1  0  0  0  0
 17 19  1  0  0  0  0
 17 21  2  0  0  0  0
 18 23  1  0  0  0  0
 19 24  2  0  0  0  0
 20 22  2  0  0  0  0
 21 26  1  0  0  0  0
 22 25  1  0  0  0  0
 22 28  1  0  0  0  0
 23 25  2  0  0  0  0
 24 27  1  0  0  0  0
 26 27  2  0  0  0  0
M  END
