432
 OpenBabel10141417493D

 20 21  0  0  1  0  0  0  0  0999 V2000
    3.7693    1.0763   -5.5871 F   0  0  0  0  0  0  0  0  0  0  0  0
    3.7056    3.2410   -5.7496 F   0  0  0  0  0  0  0  0  0  0  0  0
    1.8746    2.1199   -5.4108 F   0  0  0  0  0  0  0  0  0  0  0  0
    1.2574    5.2582   -1.5735 O   0  0  0  0  0  0  0  0  0  0  0  0
    3.2984    8.2210   -1.5186 O   0  0  0  0  0  0  0  0  0  0  0  0
    1.2739    6.3757   -4.2427 O   0  0  0  0  0  0  0  0  0  0  0  0
    3.8876    2.8160    0.3967 O   0  0  0  0  0  0  0  0  0  0  0  0
    4.6879    0.4351   -3.3328 O   0  0  0  0  0  0  0  0  0  0  0  0
    2.9626    3.5920   -1.5780 N   0  0  0  0  0  0  0  0  0  0  0  0
    4.1381    1.5830   -1.4745 N   0  0  0  0  0  0  0  0  0  0  0  0
    2.4237    4.7663   -0.8917 C   0  0  1  0  0  0  0  0  0  0  0  0
    2.9576    6.8819   -1.8446 C   0  0  1  0  0  0  0  0  0  0  0  0
    3.4250    5.9129   -0.7845 C   0  0  0  0  0  0  0  0  0  0  0  0
    1.4512    6.6637   -1.8240 C   0  0  1  0  0  0  0  0  0  0  0  0
    0.7492    7.0810   -3.1161 C   0  0  0  0  0  0  0  0  0  0  0  0
    2.8251    3.4193   -2.9433 C   0  0  0  0  0  0  0  0  0  0  0  0
    3.6656    2.6793   -0.8039 C   0  0  0  0  0  0  0  0  0  0  0  0
    3.3444    2.3730   -3.6025 C   0  0  0  0  0  0  0  0  0  0  0  0
    4.1008    1.3808   -2.8279 C   0  0  0  0  0  0  0  0  0  0  0  0
    3.1901    2.1827   -5.0650 C   0  0  0  0  0  0  0  0  0  0  0  0
  1 20  1  0  0  0  0
  2 20  1  0  0  0  0
  3 20  1  0  0  0  0
  4 11  1  0  0  0  0
  4 14  1  0  0  0  0
  6 15  1  0  0  0  0
  7 17  2  0  0  0  0
  8 19  2  0  0  0  0
  9 16  1  0  0  0  0
  9 17  1  0  0  0  0
 10 17  1  0  0  0  0
 10 19  1  0  0  0  0
 11  9  1  6  0  0  0
 11 13  1  0  0  0  0
 12 13  1  0  0  0  0
 12 14  1  0  0  0  0
 12  5  1  1  0  0  0
 14 15  1  6  0  0  0
 16 18  2  0  0  0  0
 18 19  1  0  0  0  0
 18 20  1  0  0  0  0
M  END
