1108
 OpenBabel10141417513D

 24 28  0  0  1  0  0  0  0  0999 V2000
    0.2522    0.1889    0.4994 O   0  0  0  0  0  0  0  0  0  0  0  0
   -1.8241    3.4511   -0.3069 O   0  0  0  0  0  0  0  0  0  0  0  0
    3.6210    0.8047   -1.8879 O   0  0  0  0  0  0  0  0  0  0  0  0
    3.4581   -1.8902   -4.2854 N   0  0  0  0  0  0  0  0  0  0  0  0
    1.1561   -2.4613    0.1385 C   0  0  1  0  0  0  0  0  0  0  0  0
    0.4142   -1.1555    0.6578 C   0  0  1  0  0  0  0  0  0  0  0  0
    1.7419   -1.2236    0.3370 C   0  0  2  0  0  0  0  0  0  0  0  0
    1.5275   -0.2320    2.1315 C   0  0  2  0  0  0  0  0  0  0  0  0
    0.6183    1.4727    2.0827 C   0  0  1  0  0  0  0  0  0  0  0  0
    0.2733    2.3741    0.4918 C   0  0  2  0  0  0  0  0  0  0  0  0
    1.6608    0.5367    0.0901 C   0  0  1  0  0  0  0  0  0  0  0  0
   -0.2989   -1.5939    1.9420 C   0  0  0  0  0  0  0  0  0  0  0  0
    0.5801   -1.0448    3.0157 C   0  0  0  0  0  0  0  0  0  0  0  0
    0.5516   -0.4094   -1.2756 C   0  0  0  0  0  0  0  0  0  0  0  0
    0.1415    1.4747   -1.1412 C   0  0  0  0  0  0  0  0  0  0  0  0
    1.6914   -2.6279   -1.3353 C   0  0  0  0  0  0  0  0  0  0  0  0
   -0.9042    1.5091    2.6368 C   0  0  0  0  0  0  0  0  0  0  0  0
   -1.1425    2.9186    0.8025 C   0  0  2  0  0  0  0  0  0  0  0  0
    2.0130   -3.3475    1.0900 C   0  0  0  0  0  0  0  0  0  0  0  0
   -1.8208    1.7218    1.4231 C   0  0  0  0  0  0  0  0  0  0  0  0
    2.7458   -0.1160   -1.3303 C   0  0  0  0  0  0  0  0  0  0  0  0
    1.2193    3.5884    0.3756 C   0  0  0  0  0  0  0  0  0  0  0  0
    2.6057   -1.4456   -1.9160 C   0  0  0  0  0  0  0  0  0  0  0  0
    3.0744   -1.6900   -3.2188 C   0  0  0  0  0  0  0  0  0  0  0  0
  3 21  1  0  0  0  0
  4 24  3  0  0  0  0
  5  6  1  0  0  0  0
  5  7  1  0  0  0  0
  5 16  1  0  0  0  0
  5 19  1  6  0  0  0
  6  1  1  6  0  0  0
  6 11  1  0  0  0  0
  6 12  1  0  0  0  0
  7  8  1  0  0  0  0
  7 14  1  6  0  0  0
  8  9  1  0  0  0  0
  8 13  1  6  0  0  0
  9 10  1  0  0  0  0
  9 17  1  6  0  0  0
 10 15  1  0  0  0  0
 10 18  1  0  0  0  0
 10 22  1  1  0  0  0
 11  1  1  6  0  0  0
 11 21  1  0  0  0  0
 12 13  1  0  0  0  0
 14 15  1  0  0  0  0
 16 23  1  0  0  0  0
 17 20  1  0  0  0  0
 18  2  1  6  0  0  0
 18 20  1  0  0  0  0
 21 23  2  0  0  0  0
 23 24  1  0  0  0  0
M  END
