726
 OpenBabel10141417503D

 22 24  0  0  1  0  0  0  0  0999 V2000
    0.1883    0.1021    0.2121 N   0  0  0  0  0  0  0  0  0  0  0  0
    0.4445    1.2586   -4.1115 N   0  0  0  0  0  0  0  0  0  0  0  0
   -0.2849   -0.3670   -2.2511 C   0  0  3  0  0  0  0  0  0  0  0  0
    0.1480   -0.9271   -0.8618 C   0  0  0  0  0  0  0  0  0  0  0  0
   -1.0425    0.3757    0.8435 C   0  0  0  0  0  0  0  0  0  0  0  0
    1.4155    0.7096    0.5559 C   0  0  0  0  0  0  0  0  0  0  0  0
    0.7026    0.7094   -2.7607 C   0  0  0  0  0  0  0  0  0  0  0  0
   -0.8838    2.7656    0.0951 C   0  0  0  0  0  0  0  0  0  0  0  0
    0.4194    3.1015    0.8203 C   0  0  0  0  0  0  0  0  0  0  0  0
   -1.6222    1.6475    0.7746 C   0  0  0  0  0  0  0  0  0  0  0  0
    1.5480    2.0846    0.8321 C   0  0  0  0  0  0  0  0  0  0  0  0
   -0.3997   -1.5218   -3.2677 C   0  0  0  0  0  0  0  0  0  0  0  0
   -1.6972   -0.6221    1.5849 C   0  0  0  0  0  0  0  0  0  0  0  0
    2.5656   -0.1018    0.7075 C   0  0  0  0  0  0  0  0  0  0  0  0
   -2.8867    1.8788    1.3423 C   0  0  0  0  0  0  0  0  0  0  0  0
    2.8169    2.6051    1.1944 C   0  0  0  0  0  0  0  0  0  0  0  0
   -2.9416   -0.3798    2.1743 C   0  0  0  0  0  0  0  0  0  0  0  0
    3.8091    0.4291    1.0721 C   0  0  0  0  0  0  0  0  0  0  0  0
   -3.5473    0.8611    2.0281 C   0  0  0  0  0  0  0  0  0  0  0  0
    3.9379    1.7818    1.3009 C   0  0  0  0  0  0  0  0  0  0  0  0
   -0.8863    1.8498   -4.2575 C   0  0  0  0  0  0  0  0  0  0  0  0
    1.4644    2.2643   -4.4259 C   0  0  0  0  0  0  0  0  0  0  0  0
  1  4  1  0  0  0  0
  1  5  1  0  0  0  0
  1  6  1  0  0  0  0
  2  7  1  0  0  0  0
  2 21  1  0  0  0  0
  2 22  1  0  0  0  0
  3  4  1  0  0  0  0
  3  7  1  0  0  0  0
  3 12  1  0  0  0  0
  5 10  1  0  0  0  0
  5 13  2  0  0  0  0
  6 11  1  0  0  0  0
  6 14  2  0  0  0  0
  8  9  1  0  0  0  0
  8 10  1  0  0  0  0
  9 11  1  0  0  0  0
 10 15  2  0  0  0  0
 11 16  2  0  0  0  0
 13 17  1  0  0  0  0
 14 18  1  0  0  0  0
 15 19  1  0  0  0  0
 16 20  1  0  0  0  0
 17 19  2  0  0  0  0
 18 20  2  0  0  0  0
M  END
