1157
 OpenBabel10141417513D

 27 29  0  0  0  0  0  0  0  0999 V2000
   -3.3113   -5.3105    0.1308 O   0  0  0  0  0  0  0  0  0  0  0  0
   -4.0333   -0.6795    1.4126 O   0  0  0  0  0  0  0  0  0  0  0  0
   -4.2952   -3.3919    2.0399 O   0  0  0  0  0  0  0  0  0  0  0  0
   -2.1873   -1.8092   -2.9244 N   0  0  0  0  0  0  0  0  0  0  0  0
   -2.9279   -0.4587   -9.2072 N   0  0  0  0  0  0  0  0  0  0  0  0
   -0.6244   -0.4756   -9.7062 N   0  0  0  0  0  0  0  0  0  0  0  0
    0.9719   -1.2214   -8.2546 N   0  0  0  0  0  0  0  0  0  0  0  0
   -2.1774    0.1470  -11.3111 N   0  0  0  0  0  0  0  0  0  0  0  0
   -2.3330   -1.9948   -5.3740 C   0  0  0  0  0  0  0  0  0  0  0  0
   -1.2058   -1.6047   -6.1280 C   0  0  0  0  0  0  0  0  0  0  0  0
   -2.2334   -2.7310   -4.0502 C   0  0  0  0  0  0  0  0  0  0  0  0
   -1.3716   -1.1445   -7.4872 C   0  0  0  0  0  0  0  0  0  0  0  0
   -2.6703   -0.9008   -7.9766 C   0  0  0  0  0  0  0  0  0  0  0  0
   -3.6093   -1.7189   -5.8919 C   0  0  0  0  0  0  0  0  0  0  0  0
   -3.7569   -1.1648   -7.1566 C   0  0  0  0  0  0  0  0  0  0  0  0
    0.1751   -1.7075   -5.5104 C   0  0  0  0  0  0  0  0  0  0  0  0
   -2.7222   -2.2295   -1.6992 C   0  0  0  0  0  0  0  0  0  0  0  0
   -0.3821   -0.9186   -8.4684 C   0  0  0  0  0  0  0  0  0  0  0  0
   -3.1301   -1.2623   -0.7747 C   0  0  0  0  0  0  0  0  0  0  0  0
   -2.7657   -3.5659   -1.2921 C   0  0  0  0  0  0  0  0  0  0  0  0
   -3.2834   -3.9466   -0.0412 C   0  0  0  0  0  0  0  0  0  0  0  0
   -3.6551   -1.6095    0.4808 C   0  0  0  0  0  0  0  0  0  0  0  0
   -3.7748   -2.9678    0.8414 C   0  0  0  0  0  0  0  0  0  0  0  0
   -1.8985   -0.2434  -10.0194 C   0  0  0  0  0  0  0  0  0  0  0  0
   -3.1262   -5.7972    1.4544 C   0  0  0  0  0  0  0  0  0  0  0  0
   -3.9951    0.6949    1.0661 C   0  0  0  0  0  0  0  0  0  0  0  0
   -5.4329   -2.6946    2.5403 C   0  0  0  0  0  0  0  0  0  0  0  0
  1 21  1  0  0  0  0
  1 25  1  0  0  0  0
  2 22  1  0  0  0  0
  2 26  1  0  0  0  0
  3 23  1  0  0  0  0
  3 27  1  0  0  0  0
  4 11  1  0  0  0  0
  4 17  1  0  0  0  0
  5 13  1  0  0  0  0
  5 24  2  0  0  0  0
  6 18  2  0  0  0  0
  6 24  1  0  0  0  0
  7 18  1  0  0  0  0
  8 24  1  0  0  0  0
  9 10  2  0  0  0  0
  9 11  1  0  0  0  0
  9 14  1  0  0  0  0
 10 12  1  0  0  0  0
 10 16  1  0  0  0  0
 12 13  2  0  0  0  0
 12 18  1  0  0  0  0
 13 15  1  0  0  0  0
 14 15  2  0  0  0  0
 17 19  2  0  0  0  0
 17 20  1  0  0  0  0
 19 22  1  0  0  0  0
 20 21  2  0  0  0  0
 21 23  1  0  0  0  0
 22 23  2  0  0  0  0
M  END
