347
 OpenBabel10141417483D

 10 10  0  0  0  0  0  0  0  0999 V2000
   -0.6840   -0.9616    0.0653 O   0  0  0  0  0  0  0  0  0  0  0  0
    2.3178    0.8176    0.0916 O   0  0  0  0  0  0  0  0  0  0  0  0
   -2.2013    0.7235   -0.1045 O   0  0  0  0  0  0  0  0  0  0  0  0
    0.0561    1.1102   -0.2754 N   0  0  0  0  0  0  0  0  0  0  0  0
    0.7470   -1.0464    0.1437 C   0  0  0  0  0  0  0  0  0  0  0  0
    1.1758    0.3958   -0.0026 C   0  0  0  0  0  0  0  0  0  0  0  0
    1.1218   -1.6406    1.4909 C   0  0  0  0  0  0  0  0  0  0  0  0
    1.2847   -1.8630   -1.0247 C   0  0  0  0  0  0  0  0  0  0  0  0
   -1.0442    0.3425   -0.1161 C   0  0  0  0  0  0  0  0  0  0  0  0
    0.0136    2.5230   -0.5504 C   0  0  0  0  0  0  0  0  0  0  0  0
  1  5  1  0  0  0  0
  1  9  1  0  0  0  0
  2  6  2  0  0  0  0
  3  9  2  0  0  0  0
  4  6  1  0  0  0  0
  4  9  1  0  0  0  0
  4 10  1  0  0  0  0
  5  6  1  0  0  0  0
  5  7  1  0  0  0  0
  5  8  1  0  0  0  0
M  END
