662
 OpenBabel10141417503D

 28 29  0  0  0  0  0  0  0  0999 V2000
    1.1179   -0.7254    0.4354 O   0  0  0  0  0  0  0  0  0  0  0  0
    8.1356   -6.1107   -1.8669 O   0  0  0  0  0  0  0  0  0  0  0  0
   11.6836   -3.7043   -4.0225 O   0  0  0  0  0  0  0  0  0  0  0  0
   10.4338   -6.1371   -3.3139 O   0  0  0  0  0  0  0  0  0  0  0  0
    8.2576   -0.2356   -2.5425 O   0  0  0  0  0  0  0  0  0  0  0  0
   -1.3920   -3.5202    0.7353 N   0  0  0  0  0  0  0  0  0  0  0  0
    7.4368   -1.1392   -0.5959 N   0  0  0  0  0  0  0  0  0  0  0  0
   -0.7355   -2.2079    0.9231 C   0  0  0  0  0  0  0  0  0  0  0  0
    5.2514   -0.1885   -0.0085 C   0  0  0  0  0  0  0  0  0  0  0  0
    6.7342    0.0531   -0.1609 C   0  0  0  0  0  0  0  0  0  0  0  0
    0.5560   -2.0052    0.1051 C   0  0  0  0  0  0  0  0  0  0  0  0
    2.4655   -0.5958    0.2275 C   0  0  0  0  0  0  0  0  0  0  0  0
    8.7627   -2.4898   -2.1203 C   0  0  0  0  0  0  0  0  0  0  0  0
    4.4952    0.5640    0.9004 C   0  0  0  0  0  0  0  0  0  0  0  0
    4.5810   -1.1161   -0.8206 C   0  0  0  0  0  0  0  0  0  0  0  0
    3.1133    0.3601    1.0135 C   0  0  0  0  0  0  0  0  0  0  0  0
    3.2029   -1.3180   -0.7071 C   0  0  0  0  0  0  0  0  0  0  0  0
    8.1294   -1.1988   -1.7704 C   0  0  0  0  0  0  0  0  0  0  0  0
    9.9325   -2.4782   -2.8819 C   0  0  0  0  0  0  0  0  0  0  0  0
    8.1676   -3.6976   -1.7686 C   0  0  0  0  0  0  0  0  0  0  0  0
    8.7185   -4.9071   -2.2018 C   0  0  0  0  0  0  0  0  0  0  0  0
   10.5202   -3.6683   -3.3144 C   0  0  0  0  0  0  0  0  0  0  0  0
    9.9043   -4.9042   -2.9923 C   0  0  0  0  0  0  0  0  0  0  0  0
   -2.5799   -3.6143    1.5912 C   0  0  0  0  0  0  0  0  0  0  0  0
   -1.7744   -3.7572   -0.6570 C   0  0  0  0  0  0  0  0  0  0  0  0
    6.7473   -6.0937   -1.5053 C   0  0  0  0  0  0  0  0  0  0  0  0
   12.3953   -2.5290   -4.3711 C   0  0  0  0  0  0  0  0  0  0  0  0
   11.0682   -6.3244   -4.5818 C   0  0  0  0  0  0  0  0  0  0  0  0
  1 11  1  0  0  0  0
  1 12  1  0  0  0  0
  2 21  1  0  0  0  0
  2 26  1  0  0  0  0
  3 22  1  0  0  0  0
  3 27  1  0  0  0  0
  4 23  1  0  0  0  0
  4 28  1  0  0  0  0
  5 18  2  0  0  0  0
  6  8  1  0  0  0  0
  6 24  1  0  0  0  0
  6 25  1  0  0  0  0
  7 10  1  0  0  0  0
  7 18  1  0  0  0  0
  8 11  1  0  0  0  0
  9 10  1  0  0  0  0
  9 14  2  0  0  0  0
  9 15  1  0  0  0  0
 12 16  2  0  0  0  0
 12 17  1  0  0  0  0
 13 18  1  0  0  0  0
 13 19  2  0  0  0  0
 13 20  1  0  0  0  0
 14 16  1  0  0  0  0
 15 17  2  0  0  0  0
 19 22  1  0  0  0  0
 20 21  2  0  0  0  0
 21 23  1  0  0  0  0
 22 23  2  0  0  0  0
M  END
