440
 OpenBabel10141417503D

 21 22  0  0  0  0  0  0  0  0999 V2000
    0.3518   -0.0203    0.3805 O   0  0  0  0  0  0  0  0  0  0  0  0
   -3.2794    3.2535    0.5415 O   0  0  0  0  0  0  0  0  0  0  0  0
   -2.4818    0.5680    0.7435 O   0  0  0  0  0  0  0  0  0  0  0  0
    1.4875    6.5239    3.1261 N   0  0  0  0  0  0  0  0  0  0  0  0
    0.9888    8.0675    1.4118 N   0  0  0  0  0  0  0  0  0  0  0  0
    1.8901    4.2859    2.7262 N   0  0  0  0  0  0  0  0  0  0  0  0
    1.0721    8.7515    3.6285 N   0  0  0  0  0  0  0  0  0  0  0  0
    1.4112    4.6617   -0.1878 C   0  0  0  0  0  0  0  0  0  0  0  0
    0.3676    3.5724   -0.0245 C   0  0  0  0  0  0  0  0  0  0  0  0
    1.3494    5.7460    0.8616 C   0  0  0  0  0  0  0  0  0  0  0  0
   -0.9870    3.9031    0.0647 C   0  0  0  0  0  0  0  0  0  0  0  0
    0.7262    2.2247    0.0773 C   0  0  0  0  0  0  0  0  0  0  0  0
   -0.2329    1.2195    0.3109 C   0  0  0  0  0  0  0  0  0  0  0  0
   -1.9628    2.9305    0.3274 C   0  0  0  0  0  0  0  0  0  0  0  0
   -1.5942    1.5687    0.4370 C   0  0  0  0  0  0  0  0  0  0  0  0
    1.5574    5.5384    2.2107 C   0  0  0  0  0  0  0  0  0  0  0  0
    1.0821    7.0566    0.5210 C   0  0  0  0  0  0  0  0  0  0  0  0
    1.1776    7.7405    2.6854 C   0  0  0  0  0  0  0  0  0  0  0  0
   -0.4332   -1.1701    0.6562 C   0  0  0  0  0  0  0  0  0  0  0  0
   -3.6730    4.6106    0.3964 C   0  0  0  0  0  0  0  0  0  0  0  0
   -3.8146    0.6544    0.2459 C   0  0  0  0  0  0  0  0  0  0  0  0
  1 13  1  0  0  0  0
  1 19  1  0  0  0  0
  2 14  1  0  0  0  0
  2 20  1  0  0  0  0
  3 15  1  0  0  0  0
  3 21  1  0  0  0  0
  4 16  2  0  0  0  0
  4 18  1  0  0  0  0
  5 17  1  0  0  0  0
  5 18  2  0  0  0  0
  6 16  1  0  0  0  0
  7 18  1  0  0  0  0
  8  9  1  0  0  0  0
  8 10  1  0  0  0  0
  9 11  2  0  0  0  0
  9 12  1  0  0  0  0
 10 16  1  0  0  0  0
 10 17  2  0  0  0  0
 11 14  1  0  0  0  0
 12 13  2  0  0  0  0
 13 15  1  0  0  0  0
 14 15  2  0  0  0  0
M  END
