5282443
 OpenBabel10141417513D

 21 23  0  0  0  0  0  0  0  0999 V2000
   -3.0792   -1.6668    0.9062 N   0  0  0  0  0  0  0  0  0  0  0  0
   -0.6964   -5.5389   -0.9841 N   0  0  0  0  0  0  0  0  0  0  0  0
   -2.3022   -1.0434   -0.1694 C   0  0  0  0  0  0  0  0  0  0  0  0
   -3.5261   -0.5425    1.7308 C   0  0  0  0  0  0  0  0  0  0  0  0
   -3.9345    0.5060    0.7052 C   0  0  0  0  0  0  0  0  0  0  0  0
   -3.1560    0.1519   -0.5559 C   0  0  0  0  0  0  0  0  0  0  0  0
   -2.3329   -2.6564    1.6945 C   0  0  0  0  0  0  0  0  0  0  0  0
   -1.8601   -3.8142    0.8553 C   0  0  0  0  0  0  0  0  0  0  0  0
   -2.1335   -5.1317    0.9563 C   0  0  0  0  0  0  0  0  0  0  0  0
   -3.0267   -5.6016    2.0427 C   0  0  0  0  0  0  0  0  0  0  0  0
   -1.5141   -6.0745   -0.0389 C   0  0  0  0  0  0  0  0  0  0  0  0
   -2.4885   -5.9672    3.2817 C   0  0  0  0  0  0  0  0  0  0  0  0
   -4.3961   -5.7703    1.8116 C   0  0  0  0  0  0  0  0  0  0  0  0
   -1.7672   -7.4453    0.0049 C   0  0  0  0  0  0  0  0  0  0  0  0
   -4.6649   -6.7536    4.0163 C   0  0  0  0  0  0  0  0  0  0  0  0
   -3.3045   -6.5339    4.2639 C   0  0  0  0  0  0  0  0  0  0  0  0
   -5.2102   -6.3409    2.7943 C   0  0  0  0  0  0  0  0  0  0  0  0
   -1.1743   -8.2833   -0.9390 C   0  0  0  0  0  0  0  0  0  0  0  0
   -5.5295   -7.3897    5.0646 C   0  0  0  0  0  0  0  0  0  0  0  0
   -0.1380   -6.3719   -1.8887 C   0  0  0  0  0  0  0  0  0  0  0  0
   -0.3433   -7.7380   -1.9069 C   0  0  0  0  0  0  0  0  0  0  0  0
  1  3  1  0  0  0  0
  1  4  1  0  0  0  0
  1  7  1  0  0  0  0
  2 11  1  0  0  0  0
  2 20  2  0  0  0  0
  3  6  1  0  0  0  0
  4  5  1  0  0  0  0
  5  6  1  0  0  0  0
  7  8  1  0  0  0  0
  8  9  2  0  0  0  0
  9 10  1  0  0  0  0
  9 11  1  0  0  0  0
 10 12  2  0  0  0  0
 10 13  1  0  0  0  0
 11 14  2  0  0  0  0
 12 16  1  0  0  0  0
 13 17  2  0  0  0  0
 14 18  1  0  0  0  0
 15 16  2  0  0  0  0
 15 17  1  0  0  0  0
 15 19  1  0  0  0  0
 18 21  2  0  0  0  0
 20 21  1  0  0  0  0
M  END
