1361
 OpenBabel10141417503D

 57 60  0  0  1  0  0  0  0  0999 V2000
    0.2211   -3.8290   -1.7244 O   0  0  0  0  0  0  0  0  0  0  0  0
    4.0844   -0.6312    1.0629 O   0  0  0  0  0  0  0  0  0  0  0  0
    1.9447    2.9899   -1.1995 O   0  0  0  0  0  0  0  0  0  0  0  0
    4.9908   -2.6675    0.3828 O   0  0  0  0  0  0  0  0  0  0  0  0
   -2.0857   -2.2786   -1.9750 O   0  0  0  0  0  0  0  0  0  0  0  0
   -4.2809   -1.2813    1.5290 O   0  0  0  0  0  0  0  0  0  0  0  0
   -1.2468    0.9595   -0.5288 O   0  0  0  0  0  0  0  0  0  0  0  0
    7.6301   -1.4202    1.7354 O   0  0  0  0  0  0  0  0  0  0  0  0
    0.3997    3.0709   -2.9960 O   0  0  0  0  0  0  0  0  0  0  0  0
   -1.5941    3.1332    0.1473 O   0  0  0  0  0  0  0  0  0  0  0  0
    3.4775    5.7891   -3.8500 O   0  0  0  0  0  0  0  0  0  0  0  0
    3.4504    3.0516   -5.0438 O   0  0  0  0  0  0  0  0  0  0  0  0
   -5.5301   -3.1319    0.9616 O   0  0  0  0  0  0  0  0  0  0  0  0
    7.8333    0.1115    0.0396 O   0  0  0  0  0  0  0  0  0  0  0  0
    3.7436    4.7120   -6.6337 O   0  0  0  0  0  0  0  0  0  0  0  0
    4.4884   -2.2789    3.6910 N   0  0  0  0  0  0  0  0  0  0  0  0
   -0.0519   -2.7267   -0.8119 C   0  0  2  0  0  0  0  0  0  0  0  0
    1.0297   -1.6589   -0.9642 C   0  0  0  0  0  0  0  0  0  0  0  0
    2.0070   -1.5024    0.2147 C   0  0  1  0  0  0  0  0  0  0  0  0
    3.1320   -0.4367   -0.0174 C   0  0  1  0  0  0  0  0  0  0  0  0
    0.3002   -4.1532   -0.3508 C   0  0  0  0  0  0  0  0  0  0  0  0
    2.8663    1.1161    0.0389 C   0  0  2  0  0  0  0  0  0  0  0  0
   -1.5087   -2.2908   -0.8869 C   0  0  0  0  0  0  0  0  0  0  0  0
    1.5583    1.7526   -0.5715 C   0  0  1  0  0  0  0  0  0  0  0  0
   -2.1969   -1.8965    0.4153 C   0  0  1  0  0  0  0  0  0  0  0  0
    1.3025   -1.3856    1.5648 C   0  0  0  0  0  0  0  0  0  0  0  0
   -3.5927   -1.1918    0.2350 C   0  0  2  0  0  0  0  0  0  0  0  0
    0.5316    2.0239    0.5661 C   0  0  2  0  0  0  0  0  0  0  0  0
    5.2978   -1.3399    0.7593 C   0  0  2  0  0  0  0  0  0  0  0  0
    4.1308    1.8289   -0.5158 C   0  0  0  0  0  0  0  0  0  0  0  0
   -3.6378    0.3340   -0.2137 C   0  0  2  0  0  0  0  0  0  0  0  0
    6.2049   -1.1983    2.0002 C   0  0  1  0  0  0  0  0  0  0  0  0
    5.8505   -2.2650    3.0896 C   0  0  2  0  0  0  0  0  0  0  0  0
   -2.3093   -3.2156    1.1962 C   0  0  0  0  0  0  0  0  0  0  0  0
   -2.5341    0.7850   -1.1942 C   0  0  1  0  0  0  0  0  0  0  0  0
    6.1920   -3.6065    2.4285 C   0  0  0  0  0  0  0  0  0  0  0  0
    5.6263   -3.7709    1.0122 C   0  0  1  0  0  0  0  0  0  0  0  0
    0.9772    3.7564   -1.8989 C   0  0  2  0  0  0  0  0  0  0  0  0
   -0.8735    2.1186    0.0384 C   0  0  0  0  0  0  0  0  0  0  0  0
    0.9563    3.2044    1.4611 C   0  0  0  0  0  0  0  0  0  0  0  0
   -3.7957    1.3051    0.9706 C   0  0  0  0  0  0  0  0  0  0  0  0
    1.6564    5.0217   -2.3916 C   0  0  0  0  0  0  0  0  0  0  0  0
    2.7727    4.6415   -3.3553 C   0  0  1  0  0  0  0  0  0  0  0  0
    2.2855    3.6973   -4.4832 C   0  0  2  0  0  0  0  0  0  0  0  0
    1.3644    2.5944   -3.9356 C   0  0  2  0  0  0  0  0  0  0  0  0
   -2.9016    1.9818   -2.0933 C   0  0  0  0  0  0  0  0  0  0  0  0
    4.5691   -4.8685    0.9880 C   0  0  0  0  0  0  0  0  0  0  0  0
    4.3249   -3.2845    4.7510 C   0  0  0  0  0  0  0  0  0  0  0  0
    4.0948   -0.9712    4.2274 C   0  0  0  0  0  0  0  0  0  0  0  0
   -5.0387   -2.3792    1.8028 C   0  0  0  0  0  0  0  0  0  0  0  0
    0.5790    1.9338   -5.0655 C   0  0  0  0  0  0  0  0  0  0  0  0
    8.3010   -0.5325    0.9661 C   0  0  0  0  0  0  0  0  0  0  0  0
   -4.9668   -2.7014    3.2738 C   0  0  0  0  0  0  0  0  0  0  0  0
    2.6789    6.7571   -4.5151 C   0  0  0  0  0  0  0  0  0  0  0  0
    9.6716   -0.3253    1.5405 C   0  0  0  0  0  0  0  0  0  0  0  0
    4.1515    3.8256   -5.9552 C   0  0  0  0  0  0  0  0  0  0  0  0
    5.6014    3.3252   -5.8776 C   0  0  0  0  0  0  0  0  0  0  0  0
  1 21  1  0  0  0  0
  4 29  1  0  0  0  0
  4 37  1  0  0  0  0
  5 23  2  0  0  0  0
  6 50  1  0  0  0  0
  7 35  1  0  0  0  0
  7 39  1  0  0  0  0
  8 52  1  0  0  0  0
  9 38  1  0  0  0  0
  9 45  1  0  0  0  0
 10 39  2  0  0  0  0
 11 54  1  0  0  0  0
 12 56  1  0  0  0  0
 13 50  2  0  0  0  0
 14 52  2  0  0  0  0
 15 56  2  0  0  0  0
 16 48  1  0  0  0  0
 16 49  1  0  0  0  0
 17  1  1  6  0  0  0
 17 18  1  0  0  0  0
 17 21  1  0  0  0  0
 17 23  1  0  0  0  0
 18 19  1  0  0  0  0
 19 20  1  0  0  0  0
 19 26  1  1  0  0  0
 20 22  1  0  0  0  0
 20  2  1  1  0  0  0
 22 24  1  0  0  0  0
 22 30  1  6  0  0  0
 23 25  1  0  0  0  0
 24 28  1  0  0  0  0
 24  3  1  1  0  0  0
 25 27  1  0  0  0  0
 25 34  1  1  0  0  0
 27 31  1  0  0  0  0
 27  6  1  1  0  0  0
 28 39  1  0  0  0  0
 28 40  1  6  0  0  0
 29  2  1  1  0  0  0
 29 32  1  0  0  0  0
 31 35  1  0  0  0  0
 31 41  1  1  0  0  0
 32 33  1  0  0  0  0
 32  8  1  6  0  0  0
 33 16  1  6  0  0  0
 33 36  1  0  0  0  0
 35 46  1  1  0  0  0
 36 37  1  0  0  0  0
 37 47  1  1  0  0  0
 38  3  1  6  0  0  0
 38 42  1  0  0  0  0
 42 43  1  0  0  0  0
 43 44  1  0  0  0  0
 43 11  1  6  0  0  0
 44 12  1  1  0  0  0
 44 45  1  0  0  0  0
 45 51  1  6  0  0  0
 50 53  1  0  0  0  0
 52 55  1  0  0  0  0
 56 57  1  0  0  0  0
M  END
