809
 OpenBabel10141417533D

 21 22  0  0  1  0  0  0  0  0999 V2000
    2.7325    0.2554    1.1924 O   0  0  0  0  0  0  0  0  0  0  0  0
    1.3809    3.4563    0.4356 O   0  0  0  0  0  0  0  0  0  0  0  0
    2.6348    0.5307   -1.0903 N   0  0  0  0  0  0  0  0  0  0  0  0
    4.4337   -4.2430   -1.8641 N   0  0  0  0  0  0  0  0  0  0  0  0
    0.6442    1.1275    0.3682 C   0  0  3  0  0  0  0  0  0  0  0  0
    2.0799    0.6166    0.1903 C   0  0  0  0  0  0  0  0  0  0  0  0
    4.0109    0.0277   -1.2174 C   0  0  0  0  0  0  0  0  0  0  0  0
   -0.2634    0.0710    1.0105 C   0  0  0  0  0  0  0  0  0  0  0  0
    2.0107    0.9912   -2.3374 C   0  0  0  0  0  0  0  0  0  0  0  0
    0.6766    2.4474    1.1570 C   0  0  0  0  0  0  0  0  0  0  0  0
    4.1141   -1.4648   -1.4658 C   0  0  0  0  0  0  0  0  0  0  0  0
   -0.9682   -0.8292    0.1938 C   0  0  0  0  0  0  0  0  0  0  0  0
   -0.4213   -0.0419    2.4028 C   0  0  0  0  0  0  0  0  0  0  0  0
    2.3248    2.4469   -2.6631 C   0  0  0  0  0  0  0  0  0  0  0  0
    5.2017   -1.9759   -2.1871 C   0  0  0  0  0  0  0  0  0  0  0  0
    3.2058   -2.3833   -0.9300 C   0  0  0  0  0  0  0  0  0  0  0  0
   -1.8260   -1.7848    0.7509 C   0  0  0  0  0  0  0  0  0  0  0  0
   -1.2860   -0.9906    2.9572 C   0  0  0  0  0  0  0  0  0  0  0  0
   -1.9907   -1.8602    2.1315 C   0  0  0  0  0  0  0  0  0  0  0  0
    5.3131   -3.3494   -2.3599 C   0  0  0  0  0  0  0  0  0  0  0  0
    3.4028   -3.7383   -1.1547 C   0  0  0  0  0  0  0  0  0  0  0  0
  1  6  2  0  0  0  0
  2 10  1  0  0  0  0
  3  6  1  0  0  0  0
  3  7  1  0  0  0  0
  3  9  1  0  0  0  0
  4 20  2  0  0  0  0
  4 21  1  0  0  0  0
  5  6  1  0  0  0  0
  5  8  1  0  0  0  0
  5 10  1  0  0  0  0
  7 11  1  0  0  0  0
  8 12  2  0  0  0  0
  8 13  1  0  0  0  0
  9 14  1  0  0  0  0
 11 15  2  0  0  0  0
 11 16  1  0  0  0  0
 12 17  1  0  0  0  0
 13 18  2  0  0  0  0
 15 20  1  0  0  0  0
 16 21  2  0  0  0  0
 17 19  2  0  0  0  0
 18 19  1  0  0  0  0
M  END
