5596
 OpenBabel10141418023D

 29 33  0  0  1  0  0  0  0  0999 V2000
    0.1653    1.6819    0.4688 O   0  0  0  0  0  0  0  0  0  0  0  0
    2.0394    0.4216    0.1543 O   0  0  0  0  0  0  0  0  0  0  0  0
    2.4484    2.9504    1.7289 O   0  0  0  0  0  0  0  0  0  0  0  0
   -1.6172    4.0597   -2.0352 N   0  3  0  0  0  0  0  0  0  0  0  0
   -0.1892    4.1674   -1.4600 C   0  0  3  0  0  0  0  0  0  0  0  0
   -2.2498    3.1521   -0.9558 C   0  0  3  0  0  0  0  0  0  0  0  0
   -0.4583    4.4985    0.0169 C   0  0  0  0  0  0  0  0  0  0  0  0
   -1.8126    3.8528    0.3401 C   0  0  0  0  0  0  0  0  0  0  0  0
   -1.7006    3.5797   -3.4938 C   0  0  0  0  0  0  0  0  0  0  0  0
   -2.3316    5.4592   -2.0651 C   0  0  0  0  0  0  0  0  0  0  0  0
    0.5381    2.8178   -1.6391 C   0  0  0  0  0  0  0  0  0  0  0  0
   -1.6839    1.7180   -1.0457 C   0  0  0  0  0  0  0  0  0  0  0  0
   -0.1567    1.6418   -0.9351 C   0  0  3  0  0  0  0  0  0  0  0  0
   -2.5525    5.7728   -3.5282 C   0  0  0  0  0  0  0  0  0  0  0  0
   -2.7967    4.4111   -4.1269 C   0  0  0  0  0  0  0  0  0  0  0  0
    1.3473    1.1228    0.8841 C   0  0  0  0  0  0  0  0  0  0  0  0
    1.8072    1.7404    2.2409 C   0  0  0  0  0  0  0  0  0  0  0  0
    0.6515    2.1881    3.1547 C   0  0  0  0  0  0  0  0  0  0  0  0
    2.8381    0.8674    2.9715 C   0  0  0  0  0  0  0  0  0  0  0  0
    0.7268    3.4024    3.8626 C   0  0  0  0  0  0  0  0  0  0  0  0
    2.4547   -0.3561    3.5528 C   0  0  0  0  0  0  0  0  0  0  0  0
   -0.5037    1.4000    3.3321 C   0  0  0  0  0  0  0  0  0  0  0  0
    4.1902    1.2466    3.0955 C   0  0  0  0  0  0  0  0  0  0  0  0
   -0.3233    3.8288    4.6801 C   0  0  0  0  0  0  0  0  0  0  0  0
    3.3802   -1.1643    4.2202 C   0  0  0  0  0  0  0  0  0  0  0  0
   -1.5530    1.8278    4.1500 C   0  0  0  0  0  0  0  0  0  0  0  0
    5.1188    0.4258    3.7418 C   0  0  0  0  0  0  0  0  0  0  0  0
   -1.4646    3.0454    4.8182 C   0  0  0  0  0  0  0  0  0  0  0  0
    4.7138   -0.7778    4.3056 C   0  0  0  0  0  0  0  0  0  0  0  0
  1 13  1  0  0  0  0
  1 16  1  0  0  0  0
  2 16  2  0  0  0  0
  3 17  1  0  0  0  0
  4  5  1  0  0  0  0
  4  6  1  0  0  0  0
  4  9  1  0  0  0  0
  4 10  1  0  0  0  0
  5  7  1  0  0  0  0
  5 11  1  0  0  0  0
  6  8  1  0  0  0  0
  6 12  1  0  0  0  0
  7  8  1  0  0  0  0
  9 15  1  0  0  0  0
 10 14  1  0  0  0  0
 11 13  1  0  0  0  0
 12 13  1  0  0  0  0
 14 15  1  0  0  0  0
 16 17  1  0  0  0  0
 17 18  1  0  0  0  0
 17 19  1  0  0  0  0
 18 20  2  0  0  0  0
 18 22  1  0  0  0  0
 19 21  2  0  0  0  0
 19 23  1  0  0  0  0
 20 24  1  0  0  0  0
 21 25  1  0  0  0  0
 22 26  2  0  0  0  0
 23 27  2  0  0  0  0
 24 28  2  0  0  0  0
 25 29  2  0  0  0  0
 26 28  1  0  0  0  0
 27 29  1  0  0  0  0
M  CHG  1   4   1
M  END
