685
 OpenBabel10141417503D

 30 34  0  0  1  0  0  0  0  0999 V2000
    0.6285   -0.4682    0.3603 F   0  0  0  0  0  0  0  0  0  0  0  0
    8.7297    0.7027    1.1052 F   0  0  0  0  0  0  0  0  0  0  0  0
    8.7052    5.2052   -0.1819 F   0  0  0  0  0  0  0  0  0  0  0  0
    4.5149   -3.5466    0.0259 O   0  0  0  0  0  0  0  0  0  0  0  0
    6.8427   -4.5713   -0.1996 O   0  0  0  0  0  0  0  0  0  0  0  0
    8.6076   -3.1811   -0.3387 O   0  0  0  0  0  0  0  0  0  0  0  0
    1.7309    2.1462    0.3435 N   0  0  0  0  0  0  0  0  0  0  0  0
   -0.8307    5.7353    0.3381 N   0  0  0  0  0  0  0  0  0  0  0  0
    3.8649    1.1509    0.1726 N   0  0  0  0  0  0  0  0  0  0  0  0
    6.1275    0.2166   -0.0390 N   0  0  0  0  0  0  0  0  0  0  0  0
    0.1094    3.5602    1.2718 C   0  0  1  0  0  0  0  0  0  0  0  0
    1.2767    4.3871    0.8576 C   0  0  2  0  0  0  0  0  0  0  0  0
   -0.0345    4.5263    0.1276 C   0  0  3  0  0  0  0  0  0  0  0  0
    0.4415    2.1200    1.0415 C   0  0  0  0  0  0  0  0  0  0  0  0
    2.3616    3.4671    0.3761 C   0  0  0  0  0  0  0  0  0  0  0  0
    2.5145    1.0069    0.2794 C   0  0  0  0  0  0  0  0  0  0  0  0
    1.9540   -0.2760    0.2834 C   0  0  0  0  0  0  0  0  0  0  0  0
    4.6874    0.0670    0.0715 C   0  0  0  0  0  0  0  0  0  0  0  0
    2.7600   -1.3949    0.1944 C   0  0  0  0  0  0  0  0  0  0  0  0
    4.1366   -1.2206    0.0922 C   0  0  0  0  0  0  0  0  0  0  0  0
    4.9915   -2.4136    0.0079 C   0  0  0  0  0  0  0  0  0  0  0  0
    6.8837   -0.9584   -0.1338 C   0  0  0  0  0  0  0  0  0  0  0  0
    6.4417   -2.2242   -0.1117 C   0  0  0  0  0  0  0  0  0  0  0  0
    6.7949    1.5002   -0.0678 C   0  0  0  0  0  0  0  0  0  0  0  0
    8.0844    1.7012    0.4816 C   0  0  0  0  0  0  0  0  0  0  0  0
    6.1951    2.6254   -0.6682 C   0  0  0  0  0  0  0  0  0  0  0  0
    7.4047   -3.3422   -0.2263 C   0  0  0  0  0  0  0  0  0  0  0  0
    8.7359    2.9340    0.4364 C   0  0  0  0  0  0  0  0  0  0  0  0
    6.8319    3.8726   -0.6965 C   0  0  0  0  0  0  0  0  0  0  0  0
    8.0970    4.0130   -0.1467 C   0  0  0  0  0  0  0  0  0  0  0  0
  1 17  1  0  0  0  0
  2 25  1  0  0  0  0
  3 30  1  0  0  0  0
  4 21  2  0  0  0  0
  5 27  1  0  0  0  0
  6 27  2  0  0  0  0
  7 14  1  0  0  0  0
  7 15  1  0  0  0  0
  7 16  1  0  0  0  0
  8 13  1  0  0  0  0
  9 16  1  0  0  0  0
  9 18  2  0  0  0  0
 10 18  1  0  0  0  0
 10 22  1  0  0  0  0
 10 24  1  0  0  0  0
 11 12  1  0  0  0  0
 11 13  1  0  0  0  0
 11 14  1  6  0  0  0
 12 13  1  0  0  0  0
 12 15  1  6  0  0  0
 16 17  2  0  0  0  0
 17 19  1  0  0  0  0
 18 20  1  0  0  0  0
 19 20  2  0  0  0  0
 20 21  1  0  0  0  0
 21 23  1  0  0  0  0
 22 23  2  0  0  0  0
 23 27  1  0  0  0  0
 24 25  2  0  0  0  0
 24 26  1  0  0  0  0
 25 28  1  0  0  0  0
 26 29  2  0  0  0  0
 28 30  2  0  0  0  0
 29 30  1  0  0  0  0
M  END
