1199
 OpenBabel10141417503D

 45 51  0  0  1  0  0  0  0  0999 V2000
    4.8641   -6.3443    2.8878 O   0  0  0  0  0  0  0  0  0  0  0  0
    1.2399   -8.7453    4.9805 O   0  0  0  0  0  0  0  0  0  0  0  0
    3.1195   -8.3393    2.7687 O   0  0  0  0  0  0  0  0  0  0  0  0
    8.9321   -1.1075    3.6066 O   0  0  0  0  0  0  0  0  0  0  0  0
   10.8306   -1.4735    5.5681 O   0  0  0  0  0  0  0  0  0  0  0  0
   11.3015   -2.0973    2.6571 O   0  0  0  0  0  0  0  0  0  0  0  0
    4.4626   -3.1403    6.1042 N   0  3  0  0  0  0  0  0  0  0  0  0
    7.1789   -1.3813   -2.2943 N   0  0  0  0  0  0  0  0  0  0  0  0
    4.9269   -4.3413    5.1263 C   0  0  1  0  0  0  0  0  0  0  0  0
    3.0140   -3.3467    6.5910 C   0  0  0  0  0  0  0  0  0  0  0  0
    3.9109   -5.4867    4.9856 C   0  0  0  0  0  0  0  0  0  0  0  0
    2.8175   -4.7501    7.1345 C   0  0  0  0  0  0  0  0  0  0  0  0
    6.3333   -4.9375    5.4576 C   0  0  0  0  0  0  0  0  0  0  0  0
    2.9490   -5.7082    5.9892 C   0  0  0  0  0  0  0  0  0  0  0  0
    4.4661   -1.8283    5.3039 C   0  0  0  0  0  0  0  0  0  0  0  0
    5.3526   -2.9237    7.3296 C   0  0  0  0  0  0  0  0  0  0  0  0
    3.9254   -6.3875    3.8966 C   0  0  0  0  0  0  0  0  0  0  0  0
    7.5395   -4.0222    5.4129 C   0  0  0  0  0  0  0  0  0  0  0  0
    2.0891   -6.8175    5.9287 C   0  0  0  0  0  0  0  0  0  0  0  0
    3.0575   -7.4994    3.8479 C   0  0  0  0  0  0  0  0  0  0  0  0
    2.1463   -7.7282    4.8750 C   0  0  0  0  0  0  0  0  0  0  0  0
    7.7253   -3.0590    4.4067 C   0  0  0  0  0  0  0  0  0  0  0  0
    8.5215   -4.1521    6.4137 C   0  0  0  0  0  0  0  0  0  0  0  0
    6.8732   -1.1633   -0.8623 C   0  0  2  0  0  0  0  0  0  0  0  0
    8.0681   -1.4353    0.0580 C   0  0  0  0  0  0  0  0  0  0  0  0
    5.4935   -1.6903   -0.3179 C   0  0  0  0  0  0  0  0  0  0  0  0
    7.9573   -2.5867   -2.5511 C   0  0  0  0  0  0  0  0  0  0  0  0
    8.8174   -2.1846    4.4631 C   0  0  0  0  0  0  0  0  0  0  0  0
    9.2332   -2.0629   -0.4299 C   0  0  0  0  0  0  0  0  0  0  0  0
    9.3285   -2.4702   -1.8800 C   0  0  0  0  0  0  0  0  0  0  0  0
    4.8806   -5.2807    2.0183 C   0  0  0  0  0  0  0  0  0  0  0  0
    9.6183   -3.2908    6.4572 C   0  0  0  0  0  0  0  0  0  0  0  0
    5.3051   -3.0208    0.3910 C   0  0  0  0  0  0  0  0  0  0  0  0
    9.7503   -2.3038    5.4923 C   0  0  0  0  0  0  0  0  0  0  0  0
    8.0108   -1.1068    1.4210 C   0  0  0  0  0  0  0  0  0  0  0  0
    9.0735   -1.4228    2.2728 C   0  0  0  0  0  0  0  0  0  0  0  0
   10.3331   -2.2866    0.4189 C   0  0  0  0  0  0  0  0  0  0  0  0
    6.0585   -1.2414   -3.2109 C   0  0  0  0  0  0  0  0  0  0  0  0
    3.8333   -4.3969    1.7887 C   0  0  0  0  0  0  0  0  0  0  0  0
    6.0909   -5.1063    1.3482 C   0  0  0  0  0  0  0  0  0  0  0  0
   10.2695   -1.9467    1.7695 C   0  0  0  0  0  0  0  0  0  0  0  0
    4.0535   -3.2643    0.9956 C   0  0  0  0  0  0  0  0  0  0  0  0
    6.2914   -3.9943    0.5288 C   0  0  0  0  0  0  0  0  0  0  0  0
    1.5735   -9.9732    4.3424 C   0  0  0  0  0  0  0  0  0  0  0  0
   12.6130   -2.0817    2.1000 C   0  0  0  0  0  0  0  0  0  0  0  0
  1 17  1  0  0  0  0
  1 31  1  0  0  0  0
  2 21  1  0  0  0  0
  2 44  1  0  0  0  0
  3 20  1  0  0  0  0
  4 28  1  0  0  0  0
  4 36  1  0  0  0  0
  5 34  1  0  0  0  0
  6 41  1  0  0  0  0
  6 45  1  0  0  0  0
  7 10  1  0  0  0  0
  7 15  1  0  0  0  0
  7 16  1  0  0  0  0
  8 27  1  0  0  0  0
  8 38  1  0  0  0  0
  9  7  1  6  0  0  0
  9 11  1  0  0  0  0
  9 13  1  0  0  0  0
 10 12  1  0  0  0  0
 11 14  1  0  0  0  0
 11 17  2  0  0  0  0
 12 14  1  0  0  0  0
 13 18  1  0  0  0  0
 14 19  2  0  0  0  0
 17 20  1  0  0  0  0
 18 22  2  0  0  0  0
 18 23  1  0  0  0  0
 19 21  1  0  0  0  0
 20 21  2  0  0  0  0
 22 28  1  0  0  0  0
 23 32  2  0  0  0  0
 24  8  1  6  0  0  0
 24 25  1  0  0  0  0
 24 26  1  0  0  0  0
 25 29  1  0  0  0  0
 25 35  2  0  0  0  0
 26 33  1  0  0  0  0
 27 30  1  0  0  0  0
 28 34  2  0  0  0  0
 29 30  1  0  0  0  0
 29 37  2  0  0  0  0
 31 39  2  0  0  0  0
 31 40  1  0  0  0  0
 32 34  1  0  0  0  0
 33 42  2  0  0  0  0
 33 43  1  0  0  0  0
 35 36  1  0  0  0  0
 36 41  2  0  0  0  0
 37 41  1  0  0  0  0
 39 42  1  0  0  0  0
 40 43  2  0  0  0  0
M  CHG  1   7   1
M  END
