71388
 OpenBabel10141417493D

 57 59  0  0  0  0  0  0  0  0999 V2000
    1.0792   -0.7430   -1.1443 C   0  0  0  0  0  0  0  0  0  0  0  0
    0.4810   -2.0455   -0.9235 C   0  0  0  0  0  0  0  0  0  0  0  0
    1.4599   -3.0948   -0.6642 C   0  0  0  0  0  0  0  0  0  0  0  0
    2.8836   -2.9257   -0.5763 C   0  0  0  0  0  0  0  0  0  0  0  0
    3.3643   -1.6212   -0.8134 C   0  0  0  0  0  0  0  0  0  0  0  0
    2.5403   -0.5396   -1.2467 C   0  0  0  0  0  0  0  0  0  0  0  0
    0.2282    0.3344   -0.9931 O   0  0  0  0  0  0  0  0  0  0  0  0
    0.8072    1.4988   -0.3555 C   0  0  0  0  0  0  0  0  0  0  0  0
    1.8555    1.2487    0.8161 C   0  0  0  0  0  0  0  0  0  0  0  0
    2.6480    2.3929    1.1523 O   0  0  0  0  0  0  0  0  0  0  0  0
    3.9388   -4.1164   -0.4140 C   0  0  0  0  0  0  0  0  0  0  0  0
    4.9426   -3.9990   -1.5937 C   0  0  0  0  0  0  0  0  0  0  0  0
    4.8298   -3.9796    0.8504 C   0  0  0  0  0  0  0  0  0  0  0  0
    3.2277   -5.5365   -0.4748 C   0  0  0  0  0  0  0  0  0  0  0  0
    3.9740   -6.9151   -0.2788 C   0  0  0  0  0  0  0  0  0  0  0  0
    4.5940   -7.0337    1.1207 C   0  0  0  0  0  0  0  0  0  0  0  0
    2.9473   -8.0774   -0.3943 C   0  0  0  0  0  0  0  0  0  0  0  0
    5.0742   -7.2013   -1.3116 C   0  0  0  0  0  0  0  0  0  0  0  0
    3.3300    0.8324   -1.3996 C   0  0  0  0  0  0  0  0  0  0  0  0
    3.1942    2.2859   -3.5521 C   0  0  0  0  0  0  0  0  0  0  0  0
    3.8713    1.4022   -2.6252 C   0  0  0  0  0  0  0  0  0  0  0  0
    5.2885    1.3559   -2.7201 C   0  0  0  0  0  0  0  0  0  0  0  0
    5.8714    1.6787   -3.8067 C   0  0  0  0  0  0  0  0  0  0  0  0
    5.0758    1.9230   -4.9562 C   0  0  0  0  0  0  0  0  0  0  0  0
    3.8172    2.5188   -4.7980 C   0  0  0  0  0  0  0  0  0  0  0  0
    2.0349    2.8497   -3.0096 O   0  0  0  0  0  0  0  0  0  0  0  0
    1.4652    4.1496   -3.3680 C   0  0  0  0  0  0  0  0  0  0  0  0
    1.6866    4.3183   -4.8043 C   0  0  0  0  0  0  0  0  0  0  0  0
    1.0799    3.1600   -5.4022 O   0  0  0  0  0  0  0  0  0  0  0  0
    7.3671    1.9739   -3.9793 C   0  0  0  0  0  0  0  0  0  0  0  0
    7.6722    2.4249   -5.4309 C   0  0  0  0  0  0  0  0  0  0  0  0
    7.6250    3.2717   -3.1314 C   0  0  0  0  0  0  0  0  0  0  0  0
    8.2774    0.7989   -3.4920 C   0  0  0  0  0  0  0  0  0  0  0  0
    8.2175   -0.6606   -4.1066 C   0  0  0  0  0  0  0  0  0  0  0  0
    6.8528   -1.3576   -3.9523 C   0  0  0  0  0  0  0  0  0  0  0  0
    8.6414   -0.7400   -5.5843 C   0  0  0  0  0  0  0  0  0  0  0  0
    9.2164   -1.5614   -3.3285 C   0  0  0  0  0  0  0  0  0  0  0  0
    3.7765    3.4657   -6.0792 C   0  0  0  0  0  0  0  0  0  0  0  0
   -3.6433   -2.4152   -0.2370 C   0  0  0  0  0  0  0  0  0  0  0  0
   -4.9218   -1.7798   -0.3942 C   0  0  0  0  0  0  0  0  0  0  0  0
   -5.1923   -0.8333   -1.4102 C   0  0  0  0  0  0  0  0  0  0  0  0
   -4.2566   -0.6197   -2.4206 C   0  0  0  0  0  0  0  0  0  0  0  0
   -2.9793   -1.3041   -2.2545 C   0  0  0  0  0  0  0  0  0  0  0  0
   -2.5563   -2.0696   -1.1088 C   0  0  0  0  0  0  0  0  0  0  0  0
   -3.5378   -3.1767    0.9137 O   0  0  0  0  0  0  0  0  0  0  0  0
   -3.6653   -4.6184    0.8210 C   0  0  0  0  0  0  0  0  0  0  0  0
   -2.6173   -5.2089    1.7809 C   0  0  0  0  0  0  0  0  0  0  0  0
   -2.9412   -4.9393    3.1475 O   0  0  0  0  0  0  0  0  0  0  0  0
   -4.5358    0.4432   -3.5586 C   0  0  0  0  0  0  0  0  0  0  0  0
   -4.0222    1.8205   -2.9580 C   0  0  0  0  0  0  0  0  0  0  0  0
   -3.6178    0.2245   -4.7731 C   0  0  0  0  0  0  0  0  0  0  0  0
   -6.0512    0.6183   -4.1886 C   0  0  0  0  0  0  0  0  0  0  0  0
   -6.8688   -0.5147   -4.9951 C   0  0  0  0  0  0  0  0  0  0  0  0
   -6.1531   -1.0122   -6.2682 C   0  0  0  0  0  0  0  0  0  0  0  0
   -7.2362   -1.7635   -4.1766 C   0  0  0  0  0  0  0  0  0  0  0  0
   -8.2121    0.1053   -5.4995 C   0  0  0  0  0  0  0  0  0  0  0  0
   -1.0571   -2.6431   -1.0735 C   0  0  0  0  0  0  0  0  0  0  0  0
  1  2  1  0  0  0  0
  1  6  2  0  0  0  0
  1  7  1  0  0  0  0
  2  3  2  0  0  0  0
  3  4  1  0  0  0  0
  4  5  2  0  0  0  0
  4 11  1  0  0  0  0
  5  6  1  0  0  0  0
  6 19  1  0  0  0  0
  7  8  1  0  0  0  0
  8  9  1  0  0  0  0
  9 10  1  0  0  0  0
 11 12  1  0  0  0  0
 11 13  1  0  0  0  0
 11 14  1  0  0  0  0
 14 15  1  0  0  0  0
 15 16  1  0  0  0  0
 15 17  1  0  0  0  0
 15 18  1  0  0  0  0
 20 21  1  0  0  0  0
 20 25  2  0  0  0  0
 20 26  1  0  0  0  0
 21 22  2  0  0  0  0
 21 19  1  0  0  0  0
 22 23  1  0  0  0  0
 23 24  2  0  0  0  0
 23 30  1  0  0  0  0
 24 25  1  0  0  0  0
 25 38  1  0  0  0  0
 26 27  1  0  0  0  0
 27 28  1  0  0  0  0
 28 29  1  0  0  0  0
 30 31  1  0  0  0  0
 30 32  1  0  0  0  0
 30 33  1  0  0  0  0
 33 34  1  0  0  0  0
 34 35  1  0  0  0  0
 34 36  1  0  0  0  0
 34 37  1  0  0  0  0
 39 40  1  0  0  0  0
 39 44  2  0  0  0  0
 39 45  1  0  0  0  0
 40 41  2  0  0  0  0
 41 42  1  0  0  0  0
 42 43  2  0  0  0  0
 42 49  1  0  0  0  0
 43 44  1  0  0  0  0
 44 57  1  0  0  0  0
 45 46  1  0  0  0  0
 46 47  1  0  0  0  0
 47 48  1  0  0  0  0
 49 50  1  0  0  0  0
 49 51  1  0  0  0  0
 49 52  1  0  0  0  0
 52 53  1  0  0  0  0
 53 54  1  0  0  0  0
 53 55  1  0  0  0  0
 53 56  1  0  0  0  0
 57  2  1  0  0  0  0
M  END
