34154
 OpenBabel10141417493D

 17 18  0  0  0  0  0  0  0  0999 V2000
    0.6591    0.4590   -3.0098 O   0  0  0  0  0  0  0  0  0  0  0  0
    1.9158   -1.4918   -1.2992 N   0  0  0  0  0  0  0  0  0  0  0  0
    3.4921    0.0723   -0.7950 N   0  0  0  0  0  0  0  0  0  0  0  0
   -1.5997   -0.5979   -4.3677 C   0  0  0  0  0  0  0  0  0  0  0  0
   -1.3550    0.8986   -4.2016 C   0  0  0  0  0  0  0  0  0  0  0  0
   -0.2166    1.3897   -3.5285 C   0  0  0  0  0  0  0  0  0  0  0  0
    2.3381   -0.1840   -1.3393 C   0  0  0  0  0  0  0  0  0  0  0  0
   -2.4275   -1.1584   -3.2082 C   0  0  0  0  0  0  0  0  0  0  0  0
   -2.2572   -0.9534   -5.7101 C   0  0  0  0  0  0  0  0  0  0  0  0
    2.9998   -2.3106   -0.8132 C   0  0  0  0  0  0  0  0  0  0  0  0
   -2.2823    1.8293   -4.7111 C   0  0  0  0  0  0  0  0  0  0  0  0
    1.4917    0.9249   -1.9515 C   0  0  0  0  0  0  0  0  0  0  0  0
    3.9888   -1.2507   -0.3179 C   0  0  0  0  0  0  0  0  0  0  0  0
   -0.0092    2.7777   -3.4427 C   0  0  0  0  0  0  0  0  0  0  0  0
   -0.9447    3.6895   -3.9515 C   0  0  0  0  0  0  0  0  0  0  0  0
   -2.0790    3.2033   -4.5942 C   0  0  0  0  0  0  0  0  0  0  0  0
   -0.7127    5.1677   -3.8507 C   0  0  0  0  0  0  0  0  0  0  0  0
  1  6  1  0  0  0  0
  1 12  1  0  0  0  0
  2  7  1  0  0  0  0
  2 10  1  0  0  0  0
  3  7  2  0  0  0  0
  3 13  1  0  0  0  0
  4  5  1  0  0  0  0
  4  8  1  0  0  0  0
  4  9  1  0  0  0  0
  5  6  2  0  0  0  0
  5 11  1  0  0  0  0
  6 14  1  0  0  0  0
  7 12  1  0  0  0  0
 10 13  1  0  0  0  0
 11 16  2  0  0  0  0
 14 15  2  0  0  0  0
 15 16  1  0  0  0  0
 15 17  1  0  0  0  0
M  END
