1586
 OpenBabel10141417503D

 28 31  0  0  1  0  0  0  0  0999 V2000
    2.0379    0.1387    0.5919 O   0  0  0  0  0  0  0  0  0  0  0  0
    5.0904   -2.3970   -3.0893 O   0  0  0  0  0  0  0  0  0  0  0  0
    4.1903    8.1227   -0.6336 O   0  0  0  0  0  0  0  0  0  0  0  0
    5.1609    6.1844   -1.2579 O   0  0  0  0  0  0  0  0  0  0  0  0
    4.2743    1.3900    1.6802 C   0  0  2  0  0  0  0  0  0  0  0  0
    4.7165    2.2089    0.4543 C   0  0  1  0  0  0  0  0  0  0  0  0
    4.3272   -0.1430    1.5553 C   0  0  1  0  0  0  0  0  0  0  0  0
    5.6626   -0.6748    0.9575 C   0  0  1  0  0  0  0  0  0  0  0  0
    5.6351   -2.2472    0.7403 C   0  0  2  0  0  0  0  0  0  0  0  0
    4.8531    3.6459    1.0645 C   0  0  2  0  0  0  0  0  0  0  0  0
    4.3290   -2.7588    0.0466 C   0  0  2  0  0  0  0  0  0  0  0  0
    6.1028    1.6814   -0.0148 C   0  0  0  0  0  0  0  0  0  0  0  0
    6.1377    0.1655   -0.2471 C   0  0  0  0  0  0  0  0  0  0  0  0
    3.0587   -0.7899    0.9316 C   0  0  2  0  0  0  0  0  0  0  0  0
    5.1729    1.9350    2.8104 C   0  0  0  0  0  0  0  0  0  0  0  0
    5.4549    3.3964    2.4616 C   0  0  0  0  0  0  0  0  0  0  0  0
    3.3382   -1.6479   -0.2941 C   0  0  0  0  0  0  0  0  0  0  0  0
    6.9059   -2.7848    0.0237 C   0  0  0  0  0  0  0  0  0  0  0  0
    3.7783    2.1881   -0.7603 C   0  0  0  0  0  0  0  0  0  0  0  0
    3.5774    4.5648    1.1093 C   0  0  1  0  0  0  0  0  0  0  0  0
    4.5590   -3.7222   -1.1299 C   0  0  0  0  0  0  0  0  0  0  0  0
    5.6692   -2.8928    2.1651 C   0  0  0  0  0  0  0  0  0  0  0  0
    6.8894   -2.7222   -1.5023 C   0  0  0  0  0  0  0  0  0  0  0  0
    5.6276   -3.3040   -2.1315 C   0  0  1  0  0  0  0  0  0  0  0  0
    3.8570    5.9698    1.7141 C   0  0  0  0  0  0  0  0  0  0  0  0
    2.3570    3.9833    1.8385 C   0  0  0  0  0  0  0  0  0  0  0  0
    5.0395    6.7120    1.0980 C   0  0  0  0  0  0  0  0  0  0  0  0
    4.8277    6.9645   -0.3724 C   0  0  0  0  0  0  0  0  0  0  0  0
  3 28  1  0  0  0  0
  4 28  2  0  0  0  0
  5  6  1  0  0  0  0
  5 15  1  6  0  0  0
  6 10  1  0  0  0  0
  6 12  1  0  0  0  0
  6 19  1  6  0  0  0
  7  5  1  1  0  0  0
  7  8  1  0  0  0  0
  7 14  1  0  0  0  0
  8  9  1  0  0  0  0
  8 13  1  6  0  0  0
  9 11  1  0  0  0  0
  9 18  1  0  0  0  0
  9 22  1  6  0  0  0
 10 16  1  1  0  0  0
 10 20  1  0  0  0  0
 11 17  1  1  0  0  0
 11 21  1  0  0  0  0
 12 13  1  0  0  0  0
 14 17  1  0  0  0  0
 14  1  1  6  0  0  0
 15 16  1  0  0  0  0
 18 23  1  0  0  0  0
 20 25  1  6  0  0  0
 20 26  1  0  0  0  0
 21 24  1  0  0  0  0
 23 24  1  0  0  0  0
 24  2  1  1  0  0  0
 25 27  1  0  0  0  0
 27 28  1  0  0  0  0
M  END
