577
 OpenBabel10141417523D

 23 24  0  0  1  0  0  0  0  0999 V2000
    3.7658    1.2827    3.9189 O   0  0  0  0  0  0  0  0  0  0  0  0
    4.1857    0.3903    1.1615 O   0  0  0  0  0  0  0  0  0  0  0  0
    5.2857    2.9089    4.4273 O   0  0  0  0  0  0  0  0  0  0  0  0
    4.4880   -5.8616   -0.1921 O   0  0  0  0  0  0  0  0  0  0  0  0
    5.0024   -1.3351   -0.2425 N   0  0  0  0  0  0  0  0  0  0  0  0
    6.1460    0.0269    5.5335 N   0  0  0  0  0  0  0  0  0  0  0  0
    3.5318   -2.3036    1.4503 N   0  0  0  0  0  0  0  0  0  0  0  0
    5.5333   -3.2438   -1.2929 N   0  0  0  0  0  0  0  0  0  0  0  0
    3.2932   -4.6727    1.3733 N   0  0  0  0  0  0  0  0  0  0  0  0
    2.1534   -3.3846    2.9048 N   0  0  0  0  0  0  0  0  0  0  0  0
    5.4393    1.7549    7.2099 C   0  0  0  0  0  0  0  0  0  0  0  0
    5.0674    0.9637    5.9225 C   0  0  1  0  0  0  0  0  0  0  0  0
    6.7245    2.5862    7.1028 C   0  0  0  0  0  0  0  0  0  0  0  0
    4.2913    2.6366    7.7155 C   0  0  0  0  0  0  0  0  0  0  0  0
    4.7278    1.8539    4.7042 C   0  0  0  0  0  0  0  0  0  0  0  0
    4.3573   -2.3418    0.3959 C   0  0  0  0  0  0  0  0  0  0  0  0
    5.0186    0.0903    0.0362 C   0  0  0  0  0  0  0  0  0  0  0  0
    3.4087    2.0529    2.7532 C   0  0  0  0  0  0  0  0  0  0  0  0
    4.6980   -3.5093   -0.2283 C   0  0  0  0  0  0  0  0  0  0  0  0
    4.3327    1.7556    1.5684 C   0  0  0  0  0  0  0  0  0  0  0  0
    5.6898   -1.9316   -1.2771 C   0  0  0  0  0  0  0  0  0  0  0  0
    4.1782   -4.7874    0.2871 C   0  0  0  0  0  0  0  0  0  0  0  0
    3.0316   -3.5043    1.8777 C   0  0  0  0  0  0  0  0  0  0  0  0
  1 15  1  0  0  0  0
  1 18  1  0  0  0  0
  2 17  1  0  0  0  0
  2 20  1  0  0  0  0
  3 15  2  0  0  0  0
  4 22  2  0  0  0  0
  5 16  1  0  0  0  0
  5 17  1  0  0  0  0
  5 21  1  0  0  0  0
  7 16  1  0  0  0  0
  7 23  1  0  0  0  0
  8 19  1  0  0  0  0
  8 21  2  0  0  0  0
  9 22  1  0  0  0  0
  9 23  2  0  0  0  0
 10 23  1  0  0  0  0
 11 12  1  0  0  0  0
 11 13  1  0  0  0  0
 11 14  1  0  0  0  0
 12  6  1  6  0  0  0
 12 15  1  0  0  0  0
 16 19  2  0  0  0  0
 18 20  1  0  0  0  0
 19 22  1  0  0  0  0
M  END
