1610
 OpenBabel10141417523D

 25 26  0  0  1  0  0  0  0  0999 V2000
    1.1120   -0.0308    0.0543 O   0  0  0  0  0  0  0  0  0  0  0  0
    0.2149    2.4094    2.5945 O   0  0  0  0  0  0  0  0  0  0  0  0
   -1.7294   -0.6930    0.5973 O   0  0  0  0  0  0  0  0  0  0  0  0
    1.7691    1.2413    3.7991 O   0  0  0  0  0  0  0  0  0  0  0  0
    4.7948   -4.5846   -3.2218 O   0  0  0  0  0  0  0  0  0  0  0  0
    1.8451   -2.0120   -0.9308 N   0  0  0  0  0  0  0  0  0  0  0  0
    0.6353    2.0316    6.2039 N   0  0  0  0  0  0  0  0  0  0  0  0
    3.3175   -3.4764    0.3646 N   0  0  0  0  0  0  0  0  0  0  0  0
    2.5694   -2.5712   -2.9699 N   0  0  0  0  0  0  0  0  0  0  0  0
    4.8114   -4.8054   -0.9366 N   0  0  0  0  0  0  0  0  0  0  0  0
    4.7650   -4.9181    1.3622 N   0  0  0  0  0  0  0  0  0  0  0  0
    0.1355    4.1664    4.9602 C   0  0  0  0  0  0  0  0  0  0  0  0
    0.0658    2.6125    4.9651 C   0  0  1  0  0  0  0  0  0  0  0  0
    0.2970    0.5647    1.0710 C   0  0  3  0  0  0  0  0  0  0  0  0
    0.8207    1.9653    1.3744 C   0  0  0  0  0  0  0  0  0  0  0  0
   -0.5196    4.8123    3.7256 C   0  0  0  0  0  0  0  0  0  0  0  0
   -0.5474    4.7804    6.1894 C   0  0  0  0  0  0  0  0  0  0  0  0
    0.8099    2.0012    3.7515 C   0  0  0  0  0  0  0  0  0  0  0  0
    0.9602   -1.4491    0.0568 C   0  0  0  0  0  0  0  0  0  0  0  0
   -1.1866    0.6264    0.6546 C   0  0  0  0  0  0  0  0  0  0  0  0
    2.8292   -2.9279   -0.7593 C   0  0  0  0  0  0  0  0  0  0  0  0
    3.2666   -3.2639   -1.9999 C   0  0  0  0  0  0  0  0  0  0  0  0
    1.7181   -1.8251   -2.2858 C   0  0  0  0  0  0  0  0  0  0  0  0
    4.3454   -4.2616   -2.1443 C   0  0  0  0  0  0  0  0  0  0  0  0
    4.3085   -4.4096    0.1972 C   0  0  0  0  0  0  0  0  0  0  0  0
  1 14  1  0  0  0  0
  1 19  1  0  0  0  0
  2 15  1  0  0  0  0
  2 18  1  0  0  0  0
  3 20  1  0  0  0  0
  4 18  2  0  0  0  0
  5 24  2  0  0  0  0
  6 19  1  0  0  0  0
  6 21  1  0  0  0  0
  6 23  1  0  0  0  0
  8 21  1  0  0  0  0
  8 25  1  0  0  0  0
  9 22  1  0  0  0  0
  9 23  2  0  0  0  0
 10 24  1  0  0  0  0
 10 25  2  0  0  0  0
 11 25  1  0  0  0  0
 12 13  1  0  0  0  0
 12 16  1  0  0  0  0
 12 17  1  0  0  0  0
 13  7  1  1  0  0  0
 13 18  1  0  0  0  0
 14 15  1  0  0  0  0
 14 20  1  0  0  0  0
 21 22  2  0  0  0  0
 22 24  1  0  0  0  0
M  END
