
 OpenBabel10141417493D

 10  9  0  0  0  0  0  0  0  0999 V2000
    2.1844   -0.9786   -2.5962 C   0  0  0  0  0  0  0  0  0  0  0  0
    3.5016   -0.5589   -1.9532 C   0  0  0  0  0  0  0  0  0  0  0  0
    3.6876    0.9602   -1.9989 C   0  0  0  0  0  0  0  0  0  0  0  0
    4.9948    1.4948   -1.3507 C   0  0  0  0  0  0  0  0  0  0  0  0
    5.0026    3.0276   -1.3998 C   0  0  0  0  0  0  0  0  0  0  0  0
    7.5948    1.3194   -1.4399 C   0  0  0  0  0  0  0  0  0  0  0  0
    8.7672    0.6564   -2.1491 C   0  0  0  0  0  0  0  0  0  0  0  0
    6.2462    0.8900   -2.0349 C   0  0  0  0  0  0  0  0  0  0  0  0
    3.7779    3.5856   -1.3068 O   0  0  0  0  0  0  0  0  0  0  0  0
    5.9653    3.7686   -1.4397 O   0  0  0  0  0  0  0  0  0  0  0  0
  2  1  1  0  0  0  0
  2  3  1  0  0  0  0
  3  4  1  0  0  0  0
  4  8  1  0  0  0  0
  4  5  1  0  0  0  0
  5  9  1  0  0  0  0
  5 10  2  0  0  0  0
  6  7  1  0  0  0  0
  6  8  1  0  0  0  0
M  END
