385
 OpenBabel10141417503D

 51 55  0  0  1  0  0  0  0  0999 V2000
    8.8996   -1.3366    4.0904 F   0  0  0  0  0  0  0  0  0  0  0  0
   10.7364   -1.6771    5.2274 F   0  0  0  0  0  0  0  0  0  0  0  0
   10.2174   -2.9874    3.5581 F   0  0  0  0  0  0  0  0  0  0  0  0
    7.7305    1.8010    1.8964 O   0  0  0  0  0  0  0  0  0  0  0  0
    8.7152    2.2393   -0.2257 O   0  0  0  0  0  0  0  0  0  0  0  0
    6.5436    1.6552    4.4868 O   0  0  0  0  0  0  0  0  0  0  0  0
   11.2174   -0.4835   -0.0801 O   0  0  0  0  0  0  0  0  0  0  0  0
    6.3489    3.9493   -0.5650 O   0  0  0  0  0  0  0  0  0  0  0  0
    4.1646    5.3536    4.2542 O   0  0  0  0  0  0  0  0  0  0  0  0
    3.2174    0.2912    4.5403 O   0  0  0  0  0  0  0  0  0  0  0  0
    5.3107   -0.5583    6.7292 O   0  0  0  0  0  0  0  0  0  0  0  0
    7.4628    6.3190   -0.6288 O   0  0  0  0  0  0  0  0  0  0  0  0
    4.6863    7.7659    3.6514 O   0  0  0  0  0  0  0  0  0  0  0  0
   12.1602   -0.9054    2.6870 O   0  0  0  0  0  0  0  0  0  0  0  0
    7.7624    8.7795   -1.3669 O   0  0  0  0  0  0  0  0  0  0  0  0
    7.4783    0.0160    6.3327 O   0  0  0  0  0  0  0  0  0  0  0  0
   10.2244    0.2971    2.5010 N   0  0  0  0  0  0  0  0  0  0  0  0
    6.3270    1.8925    1.5207 C   0  0  1  0  0  0  0  0  0  0  0  0
    5.3236    1.3242    3.8372 C   0  0  2  0  0  0  0  0  0  0  0  0
    5.5567    0.8639    2.3837 C   0  0  0  0  0  0  0  0  0  0  0  0
    4.5199    2.6379    3.8093 C   0  0  0  0  0  0  0  0  0  0  0  0
    5.7377    3.2956    1.6689 C   0  0  0  0  0  0  0  0  0  0  0  0
    5.0686    3.6750    2.8493 C   0  0  0  0  0  0  0  0  0  0  0  0
    8.6422    2.6148    1.1427 C   0  0  3  0  0  0  0  0  0  0  0  0
   10.7675    1.2906    1.5808 C   0  0  3  0  0  0  0  0  0  0  0  0
   10.0436    2.6191    1.7632 C   0  0  0  0  0  0  0  0  0  0  0  0
   10.7280    0.8487    0.0998 C   0  0  3  0  0  0  0  0  0  0  0  0
    9.3006    0.9602   -0.4620 C   0  0  3  0  0  0  0  0  0  0  0  0
    4.4538    0.2642    4.5854 C   0  0  0  0  0  0  0  0  0  0  0  0
    6.0031    4.2931    0.7117 C   0  0  0  0  0  0  0  0  0  0  0  0
    4.8447    5.0370    3.1050 C   0  0  0  0  0  0  0  0  0  0  0  0
    5.9551    5.6549    1.0509 C   0  0  0  0  0  0  0  0  0  0  0  0
    5.3548    6.0237    2.2483 C   0  0  0  0  0  0  0  0  0  0  0  0
    9.2779    0.7477   -1.9737 C   0  0  0  0  0  0  0  0  0  0  0  0
    5.1480   -0.8686    5.3383 C   0  0  0  0  0  0  0  0  0  0  0  0
    6.6810    6.6717    0.2367 C   0  0  0  0  0  0  0  0  0  0  0  0
    5.2793    7.4438    2.6238 C   0  0  0  0  0  0  0  0  0  0  0  0
    6.5732    8.1147    0.5982 C   0  0  0  0  0  0  0  0  0  0  0  0
    5.9089    8.4652    1.7791 C   0  0  0  0  0  0  0  0  0  0  0  0
   10.9760   -0.7584    3.0003 C   0  0  0  0  0  0  0  0  0  0  0  0
    7.1868    9.1227   -0.1727 C   0  0  0  0  0  0  0  0  0  0  0  0
    5.8709    9.7988    2.2052 C   0  0  0  0  0  0  0  0  0  0  0  0
   10.2151   -1.6905    3.9703 C   0  0  0  0  0  0  0  0  0  0  0  0
    7.1289   10.4553    0.2615 C   0  0  0  0  0  0  0  0  0  0  0  0
    6.4776   10.7873    1.4475 C   0  0  0  0  0  0  0  0  0  0  0  0
    6.5289   -0.0785    7.1005 C   0  0  0  0  0  0  0  0  0  0  0  0
    6.5218    0.3654    8.5536 C   0  0  0  0  0  0  0  0  0  0  0  0
    7.8072    1.1226    8.9158 C   0  0  0  0  0  0  0  0  0  0  0  0
    8.8649    9.5687   -1.7995 C   0  0  0  0  0  0  0  0  0  0  0  0
    7.8603    1.5833   10.3771 C   0  0  0  0  0  0  0  0  0  0  0  0
    9.1624    2.3184   10.6836 C   0  0  0  0  0  0  0  0  0  0  0  0
  1 43  1  0  0  0  0
  2 43  1  0  0  0  0
  3 43  1  0  0  0  0
  4 24  1  0  0  0  0
  5 24  1  0  0  0  0
  5 28  1  0  0  0  0
  7 27  1  0  0  0  0
  8 30  1  0  0  0  0
  9 31  1  0  0  0  0
 10 29  2  0  0  0  0
 11 35  1  0  0  0  0
 11 46  1  0  0  0  0
 12 36  2  0  0  0  0
 13 37  2  0  0  0  0
 14 40  2  0  0  0  0
 15 41  1  0  0  0  0
 15 49  1  0  0  0  0
 16 46  2  0  0  0  0
 17 25  1  0  0  0  0
 17 40  1  0  0  0  0
 18 20  1  0  0  0  0
 18 22  1  0  0  0  0
 18  4  1  1  0  0  0
 19 20  1  0  0  0  0
 19 21  1  0  0  0  0
 19 29  1  1  0  0  0
 19  6  1  0  0  0  0
 21 23  1  0  0  0  0
 22 23  2  0  0  0  0
 22 30  1  0  0  0  0
 23 31  1  0  0  0  0
 24 26  1  0  0  0  0
 25 26  1  0  0  0  0
 25 27  1  0  0  0  0
 27 28  1  0  0  0  0
 28 34  1  0  0  0  0
 29 35  1  0  0  0  0
 30 32  2  0  0  0  0
 31 33  2  0  0  0  0
 32 33  1  0  0  0  0
 32 36  1  0  0  0  0
 33 37  1  0  0  0  0
 36 38  1  0  0  0  0
 37 39  1  0  0  0  0
 38 39  2  0  0  0  0
 38 41  1  0  0  0  0
 39 42  1  0  0  0  0
 40 43  1  0  0  0  0
 41 44  2  0  0  0  0
 42 45  2  0  0  0  0
 44 45  1  0  0  0  0
 46 47  1  0  0  0  0
 47 48  1  0  0  0  0
 48 50  1  0  0  0  0
 50 51  1  0  0  0  0
M  END
