177
 OpenBabel10141417483D

 32 34  0  0  1  0  0  0  0  0999 V2000
    3.9459   -0.2390   -4.0156 O   0  0  0  0  0  0  0  0  0  0  0  0
    2.8855    0.1230    1.0237 O   0  0  0  0  0  0  0  0  0  0  0  0
    5.8139   -0.3132   -2.8266 O   0  0  0  0  0  0  0  0  0  0  0  0
    3.5675    1.1613   -0.8923 N   0  0  0  0  0  0  0  0  0  0  0  0
    2.6643    8.3452   -6.1682 N   0  0  0  0  0  0  0  0  0  0  0  0
    3.8880    7.8266   -4.3403 N   0  0  0  0  0  0  0  0  0  0  0  0
    3.9461    8.7176   -6.2424 N   0  0  0  0  0  0  0  0  0  0  0  0
    4.7236    8.3704   -5.2140 N   0  0  0  0  0  0  0  0  0  0  0  0
    3.6459   -0.2626   -1.5656 C   0  0  1  0  0  0  0  0  0  0  0  0
    2.2270   -0.8476   -1.9809 C   0  0  0  0  0  0  0  0  0  0  0  0
    4.5134    2.2153   -1.4805 C   0  0  0  0  0  0  0  0  0  0  0  0
    3.0705    1.1387    0.4559 C   0  0  0  0  0  0  0  0  0  0  0  0
    2.2773   -2.1618   -2.8104 C   0  0  0  0  0  0  0  0  0  0  0  0
    1.1931   -1.1749   -0.8880 C   0  0  0  0  0  0  0  0  0  0  0  0
    2.5720    2.3692    1.2674 C   0  0  0  0  0  0  0  0  0  0  0  0
    4.5960   -0.3292   -2.8289 C   0  0  0  0  0  0  0  0  0  0  0  0
    3.9694    3.5353   -1.9945 C   0  0  0  0  0  0  0  0  0  0  0  0
    3.2306    3.7123    1.2245 C   0  0  0  0  0  0  0  0  0  0  0  0
    4.8141    3.7800    1.3246 C   0  0  0  0  0  0  0  0  0  0  0  0
    3.6628    4.6504   -1.2657 C   0  0  0  0  0  0  0  0  0  0  0  0
    3.8825    3.8587   -3.3174 C   0  0  0  0  0  0  0  0  0  0  0  0
    2.3206    5.7130   -2.8007 C   0  0  0  0  0  0  0  0  0  0  0  0
    2.6418    5.5275   -1.5067 C   0  0  0  0  0  0  0  0  0  0  0  0
    3.0876    4.9593   -3.7147 C   0  0  0  0  0  0  0  0  0  0  0  0
    5.6481    5.0718    0.9432 C   0  0  0  0  0  0  0  0  0  0  0  0
    1.2997    6.7103   -3.1049 C   0  0  0  0  0  0  0  0  0  0  0  0
    1.3986    7.5845   -4.1912 C   0  0  0  0  0  0  0  0  0  0  0  0
    0.1491    6.8049   -2.2652 C   0  0  0  0  0  0  0  0  0  0  0  0
    0.2871    8.3714   -4.5225 C   0  0  0  0  0  0  0  0  0  0  0  0
   -0.8969    7.6756   -2.5504 C   0  0  0  0  0  0  0  0  0  0  0  0
    2.6360    7.8413   -4.9213 C   0  0  0  0  0  0  0  0  0  0  0  0
   -0.8429    8.4266   -3.7103 C   0  0  0  0  0  0  0  0  0  0  0  0
  1 16  1  0  0  0  0
  2 12  2  0  0  0  0
  3 16  2  0  0  0  0
  4 11  1  0  0  0  0
  4 12  1  0  0  0  0
  5  7  1  0  0  0  0
  5 31  2  0  0  0  0
  6  8  2  0  0  0  0
  6 31  1  0  0  0  0
  7  8  1  0  0  0  0
  9  4  1  6  0  0  0
  9 10  1  0  0  0  0
  9 16  1  0  0  0  0
 10 13  1  0  0  0  0
 10 14  1  0  0  0  0
 11 17  1  0  0  0  0
 12 15  1  0  0  0  0
 15 18  1  0  0  0  0
 17 20  2  0  0  0  0
 17 21  1  0  0  0  0
 18 19  1  0  0  0  0
 19 25  1  0  0  0  0
 20 23  1  0  0  0  0
 21 24  2  0  0  0  0
 22 23  2  0  0  0  0
 22 24  1  0  0  0  0
 22 26  1  0  0  0  0
 26 27  1  0  0  0  0
 26 28  2  0  0  0  0
 27 29  2  0  0  0  0
 27 31  1  0  0  0  0
 28 30  1  0  0  0  0
 29 32  1  0  0  0  0
 30 32  2  0  0  0  0
M  END
