
 OpenBabel10141417543D

101110  0  0  1  0  0  0  0  0999 V2000
   39.3921   15.1068   15.2099 C   0  0  0  0  0  0  0  0  0  0  0  0
   40.8781   15.1638   15.1412 C   0  0  0  0  0  0  0  0  0  0  0  0
   38.8962   13.7891   15.0467 C   0  0  0  0  0  0  0  0  0  0  0  0
   41.2551   12.9242   14.7733 C   0  0  0  0  0  0  0  0  0  0  0  0
   39.8562   12.7436   14.8736 C   0  0  0  0  0  0  0  0  0  0  0  0
   41.7386   14.1136   15.1248 C   0  0  0  0  0  0  0  0  0  0  0  0
   41.9085   16.1543   14.9423 O   0  0  0  0  0  0  0  0  0  0  0  0
   37.5227   13.4849   14.9088 O   0  0  0  0  0  0  0  0  0  0  0  0
   36.8627    9.4359   11.3417 C   0  0  1  0  0  0  0  0  0  0  0  0
   44.7128   19.3715   11.6360 C   0  0  1  0  0  0  0  0  0  0  0  0
   36.6964   10.8413   11.8151 C   0  0  0  0  0  0  0  0  0  0  0  0
   43.6467   19.1667   12.6606 C   0  0  0  0  0  0  0  0  0  0  0  0
   37.1224   12.7542   13.7815 C   0  0  0  0  0  0  0  0  0  0  0  0
   42.7481   16.8459   13.8031 C   0  0  0  0  0  0  0  0  0  0  0  0
   35.9016   12.0604   13.7195 C   0  0  0  0  0  0  0  0  0  0  0  0
   42.2979   17.5214   12.3999 C   0  0  0  0  0  0  0  0  0  0  0  0
   42.5113   18.8028   12.0081 C   0  0  0  0  0  0  0  0  0  0  0  0
   44.1125   18.7128   13.9742 C   0  0  0  0  0  0  0  0  0  0  0  0
   37.6973   11.7811   11.6279 C   0  0  0  0  0  0  0  0  0  0  0  0
   37.9038   12.7276   12.6222 C   0  0  0  0  0  0  0  0  0  0  0  0
   43.6068   17.5773   14.6003 C   0  0  0  0  0  0  0  0  0  0  0  0
   41.8126   16.7698   10.7158 Cl  0  0  0  0  0  0  0  0  0  0  0  0
   37.4400    9.4227   10.0377 O   0  0  0  0  0  0  0  0  0  0  0  0
   34.4987   12.4937   14.6119 Cl  0  0  0  0  0  0  0  0  0  0  0  0
   45.6929   20.1828   12.2505 O   0  0  0  0  0  0  0  0  0  0  0  0
   39.4652   18.5298   15.1389 C   0  0  1  0  0  0  0  0  0  0  0  0
   38.4023   17.5420   14.6476 C   0  0  1  0  0  0  0  0  0  0  0  0
   40.6945   17.8652   14.8067 C   0  0  2  0  0  0  0  0  0  0  0  0
   38.1909   17.6259   13.1843 O   0  0  0  0  0  0  0  0  0  0  0  0
   39.0169   21.9842   12.5212 C   0  0  1  0  0  0  0  0  0  0  0  0
   40.2443   16.7486   13.2919 C   0  0  1  0  0  0  0  0  0  0  0  0
   38.9623   20.7691   14.7747 C   0  0  1  0  0  0  0  0  0  0  0  0
   39.4089   17.6482   12.4093 C   0  0  1  0  0  0  0  0  0  0  0  0
   39.3836   22.0109   14.0177 C   0  0  0  0  0  0  0  0  0  0  0  0
   37.6233   20.4216   14.6009 O   0  0  0  0  0  0  0  0  0  0  0  0
   37.4998   21.6740   12.4344 C   0  0  1  0  0  0  0  0  0  0  0  0
   39.7229   19.7011   14.3689 O   0  0  0  0  0  0  0  0  0  0  0  0
   37.0889   20.4505   13.2768 C   0  0  2  0  0  0  0  0  0  0  0  0
   39.3090   23.3213   11.9541 N   0  0  0  0  0  0  0  0  0  0  0  0
   41.1966   17.6244   16.2386 O   0  0  0  0  0  0  0  0  0  0  0  0
   40.9850   15.6717   12.6887 O   0  0  0  0  0  0  0  0  0  0  0  0
   36.8066   22.8396   12.8937 O   0  0  0  0  0  0  0  0  0  0  0  0
   39.8209   21.0291   11.6548 C   0  0  0  0  0  0  0  0  0  0  0  0
   35.6081   20.3984   13.5930 C   0  0  0  0  0  0  0  0  0  0  0  0
   38.4305   16.1413   15.2309 O   0  0  0  0  0  0  0  0  0  0  0  0
   39.0605   17.6311   10.8760 C   0  0  0  0  0  0  0  0  0  0  0  0
   38.4263   16.4360   10.4769 O   0  0  0  0  0  0  0  0  0  0  0  0
   35.6992   11.0719   12.7576 C   0  0  0  0  0  0  0  0  0  0  0  0
   45.0732   17.9147   11.0171 C   0  0  2  0  0  0  0  0  0  0  0  0
   43.5701   12.3928   13.5899 N   0  0  0  0  0  0  0  0  0  0  0  0
   44.9236   16.4915   11.8593 C   0  0  0  0  0  0  0  0  0  0  0  0
   41.6061   10.6505   13.9506 C   0  0  0  0  0  0  0  0  0  0  0  0
   44.0982   15.5327   11.2554 N   0  0  0  0  0  0  0  0  0  0  0  0
   42.3126   11.9333   14.3828 C   0  0  1  0  0  0  0  0  0  0  0  0
   44.0939   13.1483   12.5714 C   0  0  0  0  0  0  0  0  0  0  0  0
   43.4101   14.2197   11.7274 C   0  0  2  0  0  0  0  0  0  0  0  0
   45.5694   16.2573   12.8465 O   0  0  0  0  0  0  0  0  0  0  0  0
   41.1720   10.4990   12.8057 O   0  0  0  0  0  0  0  0  0  0  0  0
   45.3094   12.9245   12.3434 O   0  0  0  0  0  0  0  0  0  0  0  0
   42.6803   13.7410   10.4732 C   0  0  0  0  0  0  0  0  0  0  0  0
   41.6896   12.6319   10.7785 C   0  0  0  0  0  0  0  0  0  0  0  0
   41.9764   11.5618    9.9393 N   0  0  0  0  0  0  0  0  0  0  0  0
   40.8255   12.7090   11.5030 O   0  0  0  0  0  0  0  0  0  0  0  0
   46.3900   17.9011   10.4720 N   0  0  0  0  0  0  0  0  0  0  0  0
   46.8076   18.9444    9.6790 C   0  0  0  0  0  0  0  0  0  0  0  0
   48.2628   18.8320    9.2161 C   0  0  1  0  0  0  0  0  0  0  0  0
   46.0403   19.8554    9.3649 O   0  0  0  0  0  0  0  0  0  0  0  0
   48.5081   19.7672    7.9843 C   0  0  0  0  0  0  0  0  0  0  0  0
   49.1489   19.1784   10.3678 N   0  0  0  0  0  0  0  0  0  0  0  0
   47.7409   19.3738    6.6742 C   0  0  0  0  0  0  0  0  0  0  0  0
   49.0958   18.2762   11.5188 C   0  0  0  0  0  0  0  0  0  0  0  0
   46.2168   19.4325    6.7815 C   0  0  0  0  0  0  0  0  0  0  0  0
   48.1387   20.2737    5.4966 C   0  0  0  0  0  0  0  0  0  0  0  0
   37.7572    8.6750   12.4042 C   0  0  2  0  0  0  0  0  0  0  0  0
   41.3344    9.7285   14.9416 N   0  0  0  0  0  0  0  0  0  0  0  0
   40.2880    8.7167   14.7680 C   0  0  1  0  0  0  0  0  0  0  0  0
   36.6510    6.6675   11.5791 O   0  0  0  0  0  0  0  0  0  0  0  0
   37.9074    9.2746   13.7947 N   0  0  0  0  0  0  0  0  0  0  0  0
   38.8563    9.3403   14.7692 C   0  0  0  0  0  0  0  0  0  0  0  0
   38.5048    9.9807   15.7753 O   0  0  0  0  0  0  0  0  0  0  0  0
   36.4151    5.6203   15.7665 C   0  0  0  0  0  0  0  0  0  0  0  0
   37.2410    6.2205   16.4423 O   0  0  0  0  0  0  0  0  0  0  0  0
   35.3880    4.9518   16.3419 O   0  0  0  0  0  0  0  0  0  0  0  0
   36.4322    5.6079   14.2169 C   0  0  1  0  0  0  0  0  0  0  0  0
   36.9131    6.9026   13.8275 N   0  0  0  0  0  0  0  0  0  0  0  0
   37.0388    7.3328   12.5401 C   0  0  0  0  0  0  0  0  0  0  0  0
   39.4555    5.4926   13.0300 C   0  0  0  0  0  0  0  0  0  0  0  0
   40.0054    5.7615   11.7569 C   0  0  0  0  0  0  0  0  0  0  0  0
   40.4889    7.5836   13.7868 C   0  0  0  0  0  0  0  0  0  0  0  0
   39.7682    6.3978   14.0474 C   0  0  0  0  0  0  0  0  0  0  0  0
   40.8963    6.8046   11.5409 C   0  0  0  0  0  0  0  0  0  0  0  0
   41.1497    7.7068   12.5628 C   0  0  0  0  0  0  0  0  0  0  0  0
   39.6943    5.0276   10.6454 O   0  0  0  0  0  0  0  0  0  0  0  0
   37.1971    4.4001   13.6760 C   0  0  0  0  0  0  0  0  0  0  0  0
   36.4061    3.2238   13.6223 C   0  0  0  0  0  0  0  0  0  0  0  0
   38.2969    1.8905   12.9961 C   0  0  0  0  0  0  0  0  0  0  0  0
   38.5695    4.3235   13.2717 C   0  0  0  0  0  0  0  0  0  0  0  0
   36.9532    1.9978   13.2813 C   0  0  0  0  0  0  0  0  0  0  0  0
   36.1930    0.8705   13.2374 O   0  0  0  0  0  0  0  0  0  0  0  0
   39.0887    3.0339   12.9870 C   0  0  0  0  0  0  0  0  0  0  0  0
   40.4038    2.8044   12.6644 O   0  0  0  0  0  0  0  0  0  0  0  0
  2  1  2  0  0  0  0
  3  1  1  0  0  0  0
  5  4  1  0  0  0  0
  5  3  2  0  0  0  0
  6  2  1  0  0  0  0
  6  4  2  0  0  0  0
  7  2  1  0  0  0  0
  8  3  1  0  0  0  0
  9 74  1  0  0  0  0
  9 23  1  6  0  0  0
 10 49  1  0  0  0  0
 10 25  1  1  0  0  0
 11  9  1  0  0  0  0
 12 10  1  0  0  0  0
 13  8  1  0  0  0  0
 14  7  1  0  0  0  0
 15 13  2  0  0  0  0
 16 14  1  0  0  0  0
 17 12  1  0  0  0  0
 17 16  2  0  0  0  0
 18 12  2  0  0  0  0
 19 11  1  0  0  0  0
 20 13  1  0  0  0  0
 20 19  2  0  0  0  0
 21 14  2  0  0  0  0
 21 18  1  0  0  0  0
 22 16  1  0  0  0  0
 24 15  1  0  0  0  0
 26 37  1  6  0  0  0
 27 26  1  0  0  0  0
 27 45  1  6  0  0  0
 28 26  1  0  0  0  0
 28 40  1  1  0  0  0
 29 27  1  0  0  0  0
 30 39  1  6  0  0  0
 30 43  1  0  0  0  0
 31 28  1  0  0  0  0
 31 41  1  6  0  0  0
 32 37  1  6  0  0  0
 33 29  1  0  0  0  0
 33 31  1  0  0  0  0
 33 46  1  6  0  0  0
 34 30  1  0  0  0  0
 34 32  1  0  0  0  0
 35 32  1  0  0  0  0
 36 30  1  0  0  0  0
 36 42  1  1  0  0  0
 38 35  1  0  0  0  0
 38 36  1  0  0  0  0
 38 44  1  1  0  0  0
 45  1  1  0  0  0  0
 46 47  1  0  0  0  0
 48 11  2  0  0  0  0
 48 15  1  0  0  0  0
 49 64  1  1  0  0  0
 51 49  1  0  0  0  0
 52 75  1  0  0  0  0
 53 51  1  0  0  0  0
 54  4  1  1  0  0  0
 54 50  1  0  0  0  0
 54 52  1  0  0  0  0
 55 50  1  0  0  0  0
 56 53  1  0  0  0  0
 56 55  1  0  0  0  0
 56 60  1  6  0  0  0
 57 51  2  0  0  0  0
 58 52  2  0  0  0  0
 59 55  2  0  0  0  0
 60 61  1  0  0  0  0
 61 63  2  0  0  0  0
 61 62  1  0  0  0  0
 65 64  1  0  0  0  0
 66 65  1  1  0  0  0
 66 69  1  0  0  0  0
 67 65  2  0  0  0  0
 68 66  1  0  0  0  0
 70 68  1  0  0  0  0
 71 69  1  0  0  0  0
 72 70  1  0  0  0  0
 73 70  1  0  0  0  0
 74 78  1  6  0  0  0
 76 89  1  6  0  0  0
 76 75  1  0  0  0  0
 76 79  1  0  0  0  0
 77 86  2  0  0  0  0
 79 78  1  0  0  0  0
 79 80  2  0  0  0  0
 81 82  2  0  0  0  0
 81 83  1  0  0  0  0
 84 94  1  0  0  0  0
 84 85  1  0  0  0  0
 84 81  1  1  0  0  0
 86 74  1  0  0  0  0
 86 85  1  0  0  0  0
 88 87  2  0  0  0  0
 89 90  2  0  0  0  0
 90 87  1  0  0  0  0
 91 92  2  0  0  0  0
 91 88  1  0  0  0  0
 92 89  1  0  0  0  0
 93 88  1  0  0  0  0
 94 95  2  0  0  0  0
 94 97  1  0  0  0  0
 95 98  1  0  0  0  0
 96100  1  0  0  0  0
 97 87  1  0  0  0  0
 98 96  2  0  0  0  0
 98 99  1  0  0  0  0
100 97  2  0  0  0  0
100101  1  0  0  0  0
M  END
