
 OpenBabel10141418023D

 30 33  0  0  0  0  0  0  0  0999 V2000
    0.6327    0.6614    0.5953 C   0  0  0  0  0  0  0  0  0  0  0  0
    1.7784    1.4815    0.6409 C   0  0  0  0  0  0  0  0  0  0  0  0
    0.7781   -0.5411   -0.0859 C   0  0  0  0  0  0  0  0  0  0  0  0
    1.6893    2.7517    1.2633 N   0  0  0  0  0  0  0  0  0  0  0  0
   -0.6193    0.9652    1.1719 C   0  0  0  0  0  0  0  0  0  0  0  0
    2.9388    1.1192    0.0672 N   0  0  0  0  0  0  0  0  0  0  0  0
   -0.3147   -1.4007   -0.1925 C   0  0  0  0  0  0  0  0  0  0  0  0
   -1.5804   -1.0846    0.3306 C   0  0  0  0  0  0  0  0  0  0  0  0
    2.7427    3.5772    1.7165 C   0  0  0  0  0  0  0  0  0  0  0  0
   -1.7225    0.1154    1.0417 C   0  0  0  0  0  0  0  0  0  0  0  0
    2.5471    4.9677    1.7760 C   0  0  0  0  0  0  0  0  0  0  0  0
    1.9264   -0.9128   -0.6646 N   0  0  0  0  0  0  0  0  0  0  0  0
   -4.0929   -6.3947    0.6472 N   0  0  0  0  0  0  0  0  0  0  0  0
    3.5026    5.8294    2.3077 C   0  0  0  0  0  0  0  0  0  0  0  0
    2.9544   -0.0620   -0.5687 C   0  0  0  0  0  0  0  0  0  0  0  0
   -2.6850   -1.8694    0.1442 O   0  0  0  0  0  0  0  0  0  0  0  0
    3.9345    3.0653    2.2416 C   0  0  0  0  0  0  0  0  0  0  0  0
    4.6828    5.2955    2.8113 C   0  0  0  0  0  0  0  0  0  0  0  0
   -4.2355   -5.1452    1.4019 C   0  0  0  0  0  0  0  0  0  0  0  0
   -3.3149   -6.2055   -0.5798 C   0  0  0  0  0  0  0  0  0  0  0  0
    1.4039    5.4865    1.2998 F   0  0  0  0  0  0  0  0  0  0  0  0
   -2.5542   -3.1025   -0.5666 C   0  0  0  0  0  0  0  0  0  0  0  0
    4.9045    3.9188    2.7816 C   0  0  0  0  0  0  0  0  0  0  0  0
   -2.8542    0.6296    1.6112 O   0  0  0  0  0  0  0  0  0  0  0  0
    5.9908    6.4420    3.5509 Br  0  0  0  0  0  0  0  0  0  0  0  0
   -3.9458   -3.7474   -0.7365 C   0  0  0  0  0  0  0  0  0  0  0  0
   -3.8485   -5.0866   -1.4795 C   0  0  0  0  0  0  0  0  0  0  0  0
   -4.7135   -3.9433    0.5815 C   0  0  0  0  0  0  0  0  0  0  0  0
   -5.3713   -7.0563    0.3961 C   0  0  0  0  0  0  0  0  0  0  0  0
   -3.9251   -0.2588    1.8937 C   0  0  0  0  0  0  0  0  0  0  0  0
  1  2  1  0  0  0  0
  1  3  1  0  0  0  0
  1  5  2  0  0  0  0
  2  4  1  0  0  0  0
  2  6  2  0  0  0  0
  3  7  2  0  0  0  0
  3 12  1  0  0  0  0
  4  9  1  0  0  0  0
  5 10  1  0  0  0  0
  6 15  1  0  0  0  0
  7  8  1  0  0  0  0
  8 10  2  0  0  0  0
  8 16  1  0  0  0  0
  9 11  2  0  0  0  0
  9 17  1  0  0  0  0
 10 24  1  0  0  0  0
 11 14  1  0  0  0  0
 11 21  1  0  0  0  0
 12 15  2  0  0  0  0
 13 19  1  0  0  0  0
 13 29  1  0  0  0  0
 13 20  1  0  0  0  0
 14 18  2  0  0  0  0
 16 22  1  0  0  0  0
 17 23  2  0  0  0  0
 18 23  1  0  0  0  0
 18 25  1  0  0  0  0
 19 28  1  0  0  0  0
 20 27  1  0  0  0  0
 22 26  1  0  0  0  0
 24 30  1  0  0  0  0
 26 27  1  0  0  0  0
 26 28  1  0  0  0  0
M  END
