
 OpenBabel10141417523D

 80 86  0  0  0  0  0  0  0  0999 V2000
    0.1295   -0.0442    1.0213 C   0  0  0  0  0  0  0  0  0  0  0  0
    0.1499    0.9007   -0.0233 C   0  0  0  0  0  0  0  0  0  0  0  0
   -1.0428    1.2226   -0.6806 C   0  0  0  0  0  0  0  0  0  0  0  0
   -2.2425    0.6131   -0.3207 C   0  0  0  0  0  0  0  0  0  0  0  0
   -2.2899   -0.3324    0.7041 C   0  0  0  0  0  0  0  0  0  0  0  0
   -1.0922   -0.6319    1.3568 C   0  0  0  0  0  0  0  0  0  0  0  0
   -0.8587   -1.4910    2.3972 N   0  0  0  0  0  0  0  0  0  0  0  0
    0.4478   -1.4032    2.7786 C   0  0  0  0  0  0  0  0  0  0  0  0
    1.1251   -0.5791    1.9014 C   0  0  0  0  0  0  0  0  0  0  0  0
    3.9905   -7.3185    0.1866 N   0  0  0  0  0  0  0  0  0  0  0  0
    4.8221   -6.2396    0.7626 C   0  0  3  0  0  0  0  0  0  0  0  0
    4.4247   -4.8461    0.1965 C   0  0  0  0  0  0  0  0  0  0  0  0
    5.2529   -4.1225   -0.3735 O   0  0  0  0  0  0  0  0  0  0  0  0
    8.1474   -1.8258    3.4986 C   0  0  0  0  0  0  0  0  0  0  0  0
    7.4310   -1.2912    2.2304 C   0  0  3  0  0  0  0  0  0  0  0  0
    8.6791   -1.0825    4.3189 O   0  0  0  0  0  0  0  0  0  0  0  0
    6.0117   -1.7083    2.1602 N   0  0  0  0  0  0  0  0  0  0  0  0
    5.0123   -0.8558    1.7237 C   0  0  0  0  0  0  0  0  0  0  0  0
    3.5541   -1.4276    1.6775 C   0  0  3  0  0  0  0  0  0  0  0  0
    5.2713    0.2627    1.2797 O   0  0  0  0  0  0  0  0  0  0  0  0
    3.3384   -2.4939    2.6762 N   0  0  0  0  0  0  0  0  0  0  0  0
    2.5371   -3.5999    2.6680 C   0  0  0  0  0  0  0  0  0  0  0  0
    2.2886   -4.5198    1.4533 C   0  0  3  0  0  0  0  0  0  0  0  0
    0.8040   -4.6114    1.0584 C   0  0  0  0  0  0  0  0  0  0  0  0
    3.1645   -4.3359    0.3144 N   0  0  0  0  0  0  0  0  0  0  0  0
    2.0272   -3.9176    3.7524 O   0  0  0  0  0  0  0  0  0  0  0  0
    0.4488   -6.0473    0.7017 C   0  0  0  0  0  0  0  0  0  0  0  0
    4.5662   -8.4753   -0.2811 C   0  0  0  0  0  0  0  0  0  0  0  0
    3.6338   -9.5276   -0.9017 C   0  0  3  0  0  0  0  0  0  0  0  0
    5.8000   -8.6423   -0.2410 O   0  0  0  0  0  0  0  0  0  0  0  0
    3.5386   -9.3016   -2.3689 N   0  0  0  0  0  0  0  0  0  0  0  0
    4.1731  -10.9408   -0.5912 C   0  0  0  0  0  0  0  0  0  0  0  0
    0.1747   -6.9802    1.7190 C   0  0  0  0  0  0  0  0  0  0  0  0
   -0.0730   -8.3211    1.4117 C   0  0  0  0  0  0  0  0  0  0  0  0
   -0.0549   -8.7282    0.0842 C   0  0  0  0  0  0  0  0  0  0  0  0
    0.2129   -7.8206   -0.9348 C   0  0  0  0  0  0  0  0  0  0  0  0
    0.4687   -6.4823   -0.6291 C   0  0  0  0  0  0  0  0  0  0  0  0
    2.5899   -0.2349    1.9255 C   0  0  0  0  0  0  0  0  0  0  0  0
    8.2217   -1.7098    0.9830 C   0  0  0  0  0  0  0  0  0  0  0  0
    8.0847   -3.1790    3.7034 N   0  0  0  0  0  0  0  0  0  0  0  0
    7.9007   -0.8204   -0.2163 C   0  0  0  0  0  0  0  0  0  0  0  0
    8.7093   -1.2051   -1.4568 C   0  0  0  0  0  0  0  0  0  0  0  0
    8.3951   -0.3034   -2.6535 C   0  0  0  0  0  0  0  0  0  0  0  0
    8.7309    1.0903   -2.3785 N   0  0  0  0  0  0  0  0  0  0  0  0
    8.5584   -3.9276    4.8961 C   0  0  3  0  0  0  0  0  0  0  0  0
    7.8384   -3.5566    6.2381 C   0  0  0  0  0  0  0  0  0  0  0  0
   10.0779   -4.1788    4.9293 C   0  0  0  0  0  0  0  0  0  0  0  0
   10.5060   -4.9647    6.1753 C   0  0  0  0  0  0  0  0  0  0  0  0
   10.4917   -5.0004    3.6921 C   0  0  0  0  0  0  0  0  0  0  0  0
    7.0583   -2.4286    6.2011 N   0  0  0  0  0  0  0  0  0  0  0  0
    7.8536   -4.2810    7.2341 O   0  0  0  0  0  0  0  0  0  0  0  0
    5.6374   -2.4914    6.5334 C   0  0  3  0  0  0  0  0  0  0  0  0
    4.8104   -3.2674    5.4667 C   0  0  0  0  0  0  0  0  0  0  0  0
    5.1510   -5.0556    5.1070 S   0  0  0  0  0  0  0  0  0  0  0  0
    4.8915   -6.4003    2.2943 C   0  0  0  0  0  0  0  0  0  0  0  0
    5.7655   -5.0414    3.1197 S   0  0  0  0  0  0  0  0  0  0  0  0
    5.1556   -1.0063    6.4982 C   0  0  0  0  0  0  0  0  0  0  0  0
    4.7272   -0.4890    5.4544 O   0  0  0  0  0  0  0  0  0  0  0  0
    5.3573   -0.2707    7.6433 N   0  0  0  0  0  0  0  0  0  0  0  0
    5.1821    1.1971    7.7114 C   0  0  3  0  0  0  0  0  0  0  0  0
    4.8083    1.5507    9.1586 C   0  0  0  0  0  0  0  0  0  0  0  0
    6.4814    1.9498    7.3488 C   0  0  0  0  0  0  0  0  0  0  0  0
    5.5800    1.4027   10.1115 O   0  0  0  0  0  0  0  0  0  0  0  0
    3.5349    1.9752    9.3841 N   0  0  0  0  0  0  0  0  0  0  0  0
    3.1902  -12.0841   -0.7421 C   0  0  0  0  0  0  0  0  0  0  0  0
    3.3320  -13.2311    0.0537 C   0  0  0  0  0  0  0  0  0  0  0  0
    2.4312  -14.2943   -0.0613 C   0  0  0  0  0  0  0  0  0  0  0  0
    1.3903  -14.2350   -0.9856 C   0  0  0  0  0  0  0  0  0  0  0  0
    1.2543  -13.1176   -1.7998 C   0  0  0  0  0  0  0  0  0  0  0  0
    2.1508  -12.0572   -1.6815 C   0  0  0  0  0  0  0  0  0  0  0  0
    6.2638    3.4179    7.1053 C   0  0  0  0  0  0  0  0  0  0  0  0
    6.3662    4.3619    8.1035 N   0  0  0  0  0  0  0  0  0  0  0  0
    6.1303    5.6239    7.5998 C   0  0  0  0  0  0  0  0  0  0  0  0
    5.8838    5.4811    6.2349 C   0  0  0  0  0  0  0  0  0  0  0  0
    5.9775    4.0944    5.9359 C   0  0  0  0  0  0  0  0  0  0  0  0
    6.1212    6.8711    8.2390 C   0  0  0  0  0  0  0  0  0  0  0  0
    5.8462    7.9993    7.4576 C   0  0  0  0  0  0  0  0  0  0  0  0
    5.5959    7.8843    6.0919 C   0  0  0  0  0  0  0  0  0  0  0  0
    5.6147    6.6317    5.4678 C   0  0  0  0  0  0  0  0  0  0  0  0
   -0.2783  -10.0237   -0.2707 O   0  0  0  0  0  0  0  0  0  0  0  0
  1  2  1  0  0  0  0
  2  3  2  0  0  0  0
  3  4  1  0  0  0  0
  4  5  2  0  0  0  0
  5  6  1  0  0  0  0
  6  1  2  0  0  0  0
  6  7  1  0  0  0  0
  7  8  1  0  0  0  0
  8  9  2  0  0  0  0
  9  1  1  0  0  0  0
 10 28  1  0  0  0  0
 10 11  1  0  0  0  0
 11 55  1  0  0  0  0
 11 12  1  0  0  0  0
 12 13  2  0  0  0  0
 12 25  1  0  0  0  0
 14 15  1  0  0  0  0
 14 16  2  0  0  0  0
 14 40  1  0  0  0  0
 15 39  1  0  0  0  0
 15 17  1  0  0  0  0
 17 18  1  0  0  0  0
 18 19  1  0  0  0  0
 18 20  2  0  0  0  0
 19 38  1  0  0  0  0
 19 21  1  0  0  0  0
 21 22  1  0  0  0  0
 22 23  1  0  0  0  0
 22 26  2  0  0  0  0
 23 24  1  0  0  0  0
 23 25  1  0  0  0  0
 24 27  1  0  0  0  0
 27 33  2  0  0  0  0
 28 29  1  0  0  0  0
 28 30  2  0  0  0  0
 29 31  1  0  0  0  0
 29 32  1  0  0  0  0
 32 65  1  0  0  0  0
 33 34  1  0  0  0  0
 34 35  2  0  0  0  0
 35 36  1  0  0  0  0
 35 80  1  0  0  0  0
 36 37  2  0  0  0  0
 37 27  1  0  0  0  0
 38  9  1  0  0  0  0
 39 41  1  0  0  0  0
 40 45  1  0  0  0  0
 41 42  1  0  0  0  0
 42 43  1  0  0  0  0
 43 44  1  0  0  0  0
 45 46  1  0  0  0  0
 45 47  1  0  0  0  0
 46 50  1  0  0  0  0
 46 51  2  0  0  0  0
 47 48  1  0  0  0  0
 47 49  1  0  0  0  0
 50 52  1  0  0  0  0
 52 53  1  0  0  0  0
 52 57  1  0  0  0  0
 53 54  1  0  0  0  0
 54 56  1  0  0  0  0
 55 56  1  0  0  0  0
 57 58  2  0  0  0  0
 57 59  1  0  0  0  0
 59 60  1  0  0  0  0
 60 61  1  0  0  0  0
 60 62  1  0  0  0  0
 61 63  2  0  0  0  0
 61 64  1  0  0  0  0
 62 71  1  0  0  0  0
 65 66  2  0  0  0  0
 66 67  1  0  0  0  0
 67 68  2  0  0  0  0
 68 69  1  0  0  0  0
 69 70  2  0  0  0  0
 70 65  1  0  0  0  0
 71 72  1  0  0  0  0
 71 75  2  0  0  0  0
 72 73  1  0  0  0  0
 73 74  1  0  0  0  0
 73 76  2  0  0  0  0
 74 75  1  0  0  0  0
 74 79  2  0  0  0  0
 76 77  1  0  0  0  0
 77 78  2  0  0  0  0
 78 79  1  0  0  0  0
M  END
