862
 OpenBabel10141417483D

 34 37  0  0  0  0  0  0  0  0999 V2000
    1.1655   -0.2422    0.5517 S   0  0  0  0  0  0  0  0  0  0  0  0
    0.5858    0.6306   -0.4472 O   0  0  0  0  0  0  0  0  0  0  0  0
    0.8714   -1.6507    0.5747 O   0  0  0  0  0  0  0  0  0  0  0  0
    7.0389    0.0924   -0.4783 O   0  0  0  0  0  0  0  0  0  0  0  0
    4.2035    5.4492   -2.0649 O   0  0  0  0  0  0  0  0  0  0  0  0
    0.8399    0.3791    2.0700 N   0  0  0  0  0  0  0  0  0  0  0  0
   -0.8809    0.9598    4.3705 N   0  0  0  0  0  0  0  0  0  0  0  0
    7.1685    4.0190   -0.7205 N   0  0  0  0  0  0  0  0  0  0  0  0
    6.7261    2.7994   -0.3235 N   0  0  0  0  0  0  0  0  0  0  0  0
    4.6123    3.3489   -1.2757 N   0  0  0  0  0  0  0  0  0  0  0  0
    8.3841    5.8572   -0.9708 N   0  0  0  0  0  0  0  0  0  0  0  0
    0.9262   -0.4612    3.2807 C   0  0  0  0  0  0  0  0  0  0  0  0
    0.3255    1.7510    2.2616 C   0  0  0  0  0  0  0  0  0  0  0  0
   -0.4081   -0.4079    4.0554 C   0  0  0  0  0  0  0  0  0  0  0  0
   -0.9810    1.7090    3.0904 C   0  0  0  0  0  0  0  0  0  0  0  0
   -0.0242    1.6672    5.3359 C   0  0  0  0  0  0  0  0  0  0  0  0
    2.9393   -0.0847    0.4181 C   0  0  0  0  0  0  0  0  0  0  0  0
    0.0706    0.9669    6.6885 C   0  0  0  0  0  0  0  0  0  0  0  0
    3.4976    1.0758   -0.1147 C   0  0  0  0  0  0  0  0  0  0  0  0
    3.7570   -1.1717    0.7265 C   0  0  0  0  0  0  0  0  0  0  0  0
    4.8859    1.1556   -0.3473 C   0  0  0  0  0  0  0  0  0  0  0  0
    5.7032    0.0240   -0.1364 C   0  0  0  0  0  0  0  0  0  0  0  0
    5.4357    2.5126   -0.7039 C   0  0  0  0  0  0  0  0  0  0  0  0
    5.1281   -1.1163    0.4450 C   0  0  0  0  0  0  0  0  0  0  0  0
    8.3979    4.6082   -0.5375 C   0  0  0  0  0  0  0  0  0  0  0  0
    6.3453    4.9408   -1.2837 C   0  0  0  0  0  0  0  0  0  0  0  0
    9.5622    3.9276    0.0988 C   0  0  0  0  0  0  0  0  0  0  0  0
    7.1025    6.0862   -1.4163 C   0  0  0  0  0  0  0  0  0  0  0  0
    4.9894    4.6311   -1.5775 C   0  0  0  0  0  0  0  0  0  0  0  0
    9.5873    4.0978    1.6192 C   0  0  0  0  0  0  0  0  0  0  0  0
    6.6980    7.4153   -1.9306 C   0  0  0  0  0  0  0  0  0  0  0  0
    9.7004    5.5502    2.0660 C   0  0  0  0  0  0  0  0  0  0  0  0
    7.6374   -1.1551   -0.8757 C   0  0  0  0  0  0  0  0  0  0  0  0
    9.0846   -0.9227   -1.2795 C   0  0  0  0  0  0  0  0  0  0  0  0
  1  2  2  0  0  0  0
  1  3  2  0  0  0  0
  1  6  1  0  0  0  0
  1 17  1  0  0  0  0
  4 22  1  0  0  0  0
  4 33  1  0  0  0  0
  5 29  2  0  0  0  0
  6 12  1  0  0  0  0
  6 13  1  0  0  0  0
  7 14  1  0  0  0  0
  7 15  1  0  0  0  0
  7 16  1  0  0  0  0
  8  9  1  0  0  0  0
  8 25  1  0  0  0  0
  8 26  1  0  0  0  0
  9 23  1  0  0  0  0
 10 23  2  0  0  0  0
 10 29  1  0  0  0  0
 11 25  2  0  0  0  0
 11 28  1  0  0  0  0
 12 14  1  0  0  0  0
 13 15  1  0  0  0  0
 16 18  1  0  0  0  0
 17 19  2  0  0  0  0
 17 20  1  0  0  0  0
 19 21  1  0  0  0  0
 20 24  2  0  0  0  0
 21 22  2  0  0  0  0
 21 23  1  0  0  0  0
 22 24  1  0  0  0  0
 25 27  1  0  0  0  0
 26 28  2  0  0  0  0
 26 29  1  0  0  0  0
 27 30  1  0  0  0  0
 28 31  1  0  0  0  0
 30 32  1  0  0  0  0
 33 34  1  0  0  0  0
M  END
