
 OpenBabel10141417523D

 40 45  0  0  1  0  0  0  0  0999 V2000
   -1.9565   -0.9338    1.3168 C   0  0  1  0  0  0  0  0  0  0  0  0
   -0.7284   -1.5836    0.6672 C   0  0  2  0  0  0  0  0  0  0  0  0
   -3.0823   -1.5936    0.4046 C   0  0  2  0  0  0  0  0  0  0  0  0
   -1.8345    0.6112    1.2843 C   0  0  0  0  0  0  0  0  0  0  0  0
   -2.2098   -1.3653    2.7777 C   0  0  0  0  0  0  0  0  0  0  0  0
    0.6661   -0.9971    0.9122 C   0  0  1  0  0  0  0  0  0  0  0  0
   -1.0247   -3.0684    0.6285 C   0  0  0  0  0  0  0  0  0  0  0  0
   -2.4984   -3.0744    0.0925 C   0  0  2  0  0  0  0  0  0  0  0  0
   -3.2293   -0.7881   -0.7934 O   0  0  0  0  0  0  0  0  0  0  0  0
   -0.4316    1.2228    1.1582 C   0  0  0  0  0  0  0  0  0  0  0  0
    0.5579    0.4147    0.2847 C   0  0  2  0  0  0  0  0  0  0  0  0
    1.3178   -0.8576    2.2982 C   0  0  0  0  0  0  0  0  0  0  0  0
   -2.5860   -3.6022   -1.4354 N   0  3  0  0  0  0  0  0  0  0  0  0
   -4.1260    0.2485   -0.7435 C   0  0  0  0  0  0  0  0  0  0  0  0
    1.9671    1.0161    0.0138 C   0  0  2  0  0  0  0  0  0  0  0  0
    2.6224    0.0088    2.2832 C   0  0  0  0  0  0  0  0  0  0  0  0
   -4.0746   -3.6764   -1.8500 C   0  0  0  0  0  0  0  0  0  0  0  0
   -1.7901   -2.7273   -2.4213 C   0  0  0  0  0  0  0  0  0  0  0  0
   -2.0139   -5.0413   -1.4722 C   0  0  0  0  0  0  0  0  0  0  0  0
   -3.6766    1.3178   -1.7268 C   0  0  0  0  0  0  0  0  0  0  0  0
   -5.0181    0.3554    0.0607 O   0  0  0  0  0  0  0  0  0  0  0  0
    2.7113    1.2555    1.3314 C   0  0  1  0  0  0  0  0  0  0  0  0
    1.8743    2.2664   -0.8976 C   0  0  0  0  0  0  0  0  0  0  0  0
    2.8010   -0.0043   -0.8406 C   0  0  0  0  0  0  0  0  0  0  0  0
   -4.2623   -4.0458   -3.3242 C   0  0  0  0  0  0  0  0  0  0  0  0
   -1.9849   -3.1348   -3.8755 C   0  0  0  0  0  0  0  0  0  0  0  0
    2.3393    2.5876    2.0036 C   0  0  0  0  0  0  0  0  0  0  0  0
    1.5976    3.6593   -0.2998 C   0  0  1  0  0  0  0  0  0  0  0  0
   -3.4534   -3.1671   -4.2655 C   0  0  0  0  0  0  0  0  0  0  0  0
    2.3353    3.8291    1.0753 C   0  0  1  0  0  0  0  0  0  0  0  0
    2.0037    4.6761   -1.3421 N   0  0  0  0  0  0  0  0  0  0  0  0
    1.6884    4.9043    1.8246 O   0  0  0  0  0  0  0  0  0  0  0  0
    1.8777    6.0851   -0.9480 C   0  0  0  0  0  0  0  0  0  0  0  0
    1.3875    4.5302   -2.6767 C   0  0  0  0  0  0  0  0  0  0  0  0
    2.4808    5.5819    2.6970 C   0  0  0  0  0  0  0  0  0  0  0  0
    0.4293    6.5677   -0.8628 C   0  0  0  0  0  0  0  0  0  0  0  0
   -0.1017    4.8694   -2.6986 C   0  0  0  0  0  0  0  0  0  0  0  0
    1.7227    6.6965    3.3756 C   0  0  0  0  0  0  0  0  0  0  0  0
    3.6630    5.3689    2.8975 O   0  0  0  0  0  0  0  0  0  0  0  0
   -0.3872    6.2514   -2.1164 C   0  0  0  0  0  0  0  0  0  0  0  0
  1  2  1  0  0  0  0
  1  3  1  0  0  0  0
  1  4  1  0  0  0  0
  1  5  1  6  0  0  0
  2  6  1  0  0  0  0
  2  7  1  6  0  0  0
  3  8  1  0  0  0  0
  3  9  1  6  0  0  0
  4 10  1  0  0  0  0
  6 11  1  0  0  0  0
  6 12  1  1  0  0  0
  7  8  1  0  0  0  0
  8 13  1  6  0  0  0
  9 14  1  0  0  0  0
 11 15  1  0  0  0  0
 11 10  1  6  0  0  0
 12 16  1  0  0  0  0
 13 17  1  0  0  0  0
 13 18  1  0  0  0  0
 13 19  1  0  0  0  0
 14 20  1  0  0  0  0
 14 21  2  0  0  0  0
 15 22  1  0  0  0  0
 15 23  1  0  0  0  0
 15 24  1  6  0  0  0
 16 22  1  0  0  0  0
 17 25  1  0  0  0  0
 18 26  1  0  0  0  0
 22 27  1  6  0  0  0
 23 28  1  0  0  0  0
 25 29  1  0  0  0  0
 26 29  1  0  0  0  0
 27 30  1  0  0  0  0
 28 30  1  0  0  0  0
 28 31  1  6  0  0  0
 30 32  1  1  0  0  0
 31 33  1  0  0  0  0
 31 34  1  0  0  0  0
 32 35  1  0  0  0  0
 33 36  1  0  0  0  0
 34 37  1  0  0  0  0
 35 38  1  0  0  0  0
 35 39  2  0  0  0  0
 36 40  1  0  0  0  0
 37 40  1  0  0  0  0
M  CHG  1  13   1
M  END
