285
 OpenBabel10141417503D

 20 21  0  0  1  0  0  0  0  0999 V2000
    3.3830    1.0006   -1.3065 O   0  0  0  0  0  0  0  0  0  0  0  0
    8.6056   -0.5313    1.8809 O   0  0  0  0  0  0  0  0  0  0  0  0
    2.4426   -1.0431    3.2255 N   0  0  0  0  0  0  0  0  0  0  0  0
    2.5936    0.0001   -0.6292 C   0  0  0  0  0  0  0  0  0  0  0  0
    2.9890    0.0021    0.9037 C   0  0  3  0  0  0  0  0  0  0  0  0
    2.8252   -1.3502   -1.3433 C   0  0  0  0  0  0  0  0  0  0  0  0
    1.1240    0.4419   -0.8338 C   0  0  0  0  0  0  0  0  0  0  0  0
    2.4197   -1.3082   -2.8208 C   0  0  0  0  0  0  0  0  0  0  0  0
    0.7041    0.4637   -2.3085 C   0  0  0  0  0  0  0  0  0  0  0  0
    0.9698   -0.8725   -2.9922 C   0  0  0  0  0  0  0  0  0  0  0  0
    2.1297   -0.9895    1.7751 C   0  0  0  0  0  0  0  0  0  0  0  0
    4.4996   -0.1781    1.1069 C   0  0  0  0  0  0  0  0  0  0  0  0
    5.3606    0.9384    1.1148 C   0  0  0  0  0  0  0  0  0  0  0  0
    5.0619   -1.4392    1.3036 C   0  0  0  0  0  0  0  0  0  0  0  0
    2.2060    0.2426    3.8814 C   0  0  0  0  0  0  0  0  0  0  0  0
    1.6680   -2.0917    3.8953 C   0  0  0  0  0  0  0  0  0  0  0  0
    6.7299    0.7811    1.3615 C   0  0  0  0  0  0  0  0  0  0  0  0
    6.4223   -1.5933    1.5640 C   0  0  0  0  0  0  0  0  0  0  0  0
    7.2656   -0.4806    1.6068 C   0  0  0  0  0  0  0  0  0  0  0  0
    9.1312   -1.8239    2.1720 C   0  0  0  0  0  0  0  0  0  0  0  0
  1  4  1  0  0  0  0
  2 19  1  0  0  0  0
  2 20  1  0  0  0  0
  3 11  1  0  0  0  0
  3 15  1  0  0  0  0
  3 16  1  0  0  0  0
  4  5  1  0  0  0  0
  4  6  1  0  0  0  0
  4  7  1  0  0  0  0
  5 11  1  0  0  0  0
  5 12  1  0  0  0  0
  6  8  1  0  0  0  0
  7  9  1  0  0  0  0
  8 10  1  0  0  0  0
  9 10  1  0  0  0  0
 12 13  2  0  0  0  0
 12 14  1  0  0  0  0
 13 17  1  0  0  0  0
 14 18  2  0  0  0  0
 17 19  2  0  0  0  0
 18 19  1  0  0  0  0
M  END
