661
 OpenBabel10141417503D

 33 34  0  0  1  0  0  0  0  0999 V2000
   -0.2488    1.1800   -8.6170 O   0  0  0  0  0  0  0  0  0  0  0  0
    2.2396   -0.0001   -8.4770 O   0  0  0  0  0  0  0  0  0  0  0  0
  -11.7565   -2.6637   -5.6459 O   0  0  0  0  0  0  0  0  0  0  0  0
  -12.3482   -5.3412   -5.4665 O   0  0  0  0  0  0  0  0  0  0  0  0
   -4.9914   -2.7709   -4.1600 N   0  0  0  0  0  0  0  0  0  0  0  0
   -0.3790   -1.5245   -1.9218 N   0  0  0  0  0  0  0  0  0  0  0  0
   -1.3408   -0.1268   -3.9053 C   0  0  3  0  0  0  0  0  0  0  0  0
   -1.6706    1.3441   -3.4156 C   0  0  0  0  0  0  0  0  0  0  0  0
   -2.6864   -0.7839   -4.3708 C   0  0  0  0  0  0  0  0  0  0  0  0
   -2.6219   -2.2069   -4.9442 C   0  0  0  0  0  0  0  0  0  0  0  0
   -0.3392   -0.1079   -5.1219 C   0  0  0  0  0  0  0  0  0  0  0  0
   -4.0320   -2.7407   -5.2901 C   0  0  0  0  0  0  0  0  0  0  0  0
   -2.6024    1.3642   -2.1831 C   0  0  0  0  0  0  0  0  0  0  0  0
   -0.4478    2.2133   -3.0852 C   0  0  0  0  0  0  0  0  0  0  0  0
   -0.7977   -0.9090   -2.7924 C   0  0  0  0  0  0  0  0  0  0  0  0
   -0.6768    0.5647   -6.3024 C   0  0  0  0  0  0  0  0  0  0  0  0
    0.9029   -0.7541   -5.1025 C   0  0  0  0  0  0  0  0  0  0  0  0
   -6.2986   -3.3071   -4.6166 C   0  0  0  0  0  0  0  0  0  0  0  0
    0.1451    0.5762   -7.4438 C   0  0  0  0  0  0  0  0  0  0  0  0
   -4.4685   -3.5644   -3.0429 C   0  0  0  0  0  0  0  0  0  0  0  0
    1.7546   -0.7420   -6.2156 C   0  0  0  0  0  0  0  0  0  0  0  0
   -7.3833   -3.3381   -3.5160 C   0  0  0  0  0  0  0  0  0  0  0  0
    1.3925   -0.0831   -7.3952 C   0  0  0  0  0  0  0  0  0  0  0  0
   -8.6919   -3.8975   -4.0063 C   0  0  0  0  0  0  0  0  0  0  0  0
   -9.6638   -3.0337   -4.5015 C   0  0  0  0  0  0  0  0  0  0  0  0
   -8.9506   -5.2667   -3.9913 C   0  0  0  0  0  0  0  0  0  0  0  0
  -10.8557   -3.5143   -5.0528 C   0  0  0  0  0  0  0  0  0  0  0  0
   -1.4958    1.8849   -8.6132 C   0  0  0  0  0  0  0  0  0  0  0  0
  -10.1757   -5.7587   -4.4490 C   0  0  0  0  0  0  0  0  0  0  0  0
  -11.1474   -4.8924   -4.9692 C   0  0  0  0  0  0  0  0  0  0  0  0
    3.1928   -1.0587   -8.6200 C   0  0  0  0  0  0  0  0  0  0  0  0
  -11.2213   -1.4584   -6.2079 C   0  0  0  0  0  0  0  0  0  0  0  0
  -12.8879   -6.5175   -4.8588 C   0  0  0  0  0  0  0  0  0  0  0  0
  1 19  1  0  0  0  0
  1 28  1  0  0  0  0
  2 23  1  0  0  0  0
  2 31  1  0  0  0  0
  3 27  1  0  0  0  0
  3 32  1  0  0  0  0
  4 30  1  0  0  0  0
  4 33  1  0  0  0  0
  5 12  1  0  0  0  0
  5 18  1  0  0  0  0
  5 20  1  0  0  0  0
  6 15  3  0  0  0  0
  7  8  1  0  0  0  0
  7  9  1  0  0  0  0
  7 11  1  0  0  0  0
  7 15  1  0  0  0  0
  8 13  1  0  0  0  0
  8 14  1  0  0  0  0
  9 10  1  0  0  0  0
 10 12  1  0  0  0  0
 11 16  2  0  0  0  0
 11 17  1  0  0  0  0
 16 19  1  0  0  0  0
 17 21  2  0  0  0  0
 18 22  1  0  0  0  0
 19 23  2  0  0  0  0
 21 23  1  0  0  0  0
 22 24  1  0  0  0  0
 24 25  2  0  0  0  0
 24 26  1  0  0  0  0
 25 27  1  0  0  0  0
 26 29  2  0  0  0  0
 27 30  2  0  0  0  0
 29 30  1  0  0  0  0
M  END
