32326
 OpenBabel10141417483D

 19 21  0  0  1  0  0  0  0  0999 V2000
   -0.7609   -0.7136   -0.2715 O   0  0  0  0  0  0  0  0  0  0  0  0
    2.1967    1.3703    0.4096 O   0  0  0  0  0  0  0  0  0  0  0  0
   -0.2291    2.0399    2.0118 O   0  0  0  0  0  0  0  0  0  0  0  0
   -2.5269    1.4290   -1.0897 O   0  0  0  0  0  0  0  0  0  0  0  0
    0.8878   -0.0668   -1.8506 N   0  0  0  0  0  0  0  0  0  0  0  0
    0.5213    0.3791   -4.0061 N   0  0  0  0  0  0  0  0  0  0  0  0
    3.3209    0.1315   -1.7891 N   0  0  0  0  0  0  0  0  0  0  0  0
    4.2027    0.7998   -3.9601 N   0  0  0  0  0  0  0  0  0  0  0  0
    2.8601    1.1806   -5.8600 N   0  0  0  0  0  0  0  0  0  0  0  0
    1.0648    0.5372    0.6127 C   0  0  2  0  0  0  0  0  0  0  0  0
    0.6548   -0.4684   -0.4757 C   0  0  1  0  0  0  0  0  0  0  0  0
   -0.1956    1.3658    0.7581 C   0  0  1  0  0  0  0  0  0  0  0  0
   -1.2641    0.2870    0.6501 C   0  0  1  0  0  0  0  0  0  0  0  0
   -2.6232    0.8186    0.1950 C   0  0  0  0  0  0  0  0  0  0  0  0
    2.1197    0.1745   -2.4032 C   0  0  0  0  0  0  0  0  0  0  0  0
   -0.0303    0.0249   -2.8643 C   0  0  0  0  0  0  0  0  0  0  0  0
    1.8657    0.4928   -3.7237 C   0  0  0  0  0  0  0  0  0  0  0  0
    2.9711    0.8345   -4.5195 C   0  0  0  0  0  0  0  0  0  0  0  0
    4.3041    0.4643   -2.6563 C   0  0  0  0  0  0  0  0  0  0  0  0
  1 11  1  0  0  0  0
  1 13  1  0  0  0  0
  4 14  1  0  0  0  0
  5 15  1  0  0  0  0
  5 16  1  0  0  0  0
  6 16  2  0  0  0  0
  6 17  1  0  0  0  0
  7 15  1  0  0  0  0
  7 19  2  0  0  0  0
  8 18  2  0  0  0  0
  8 19  1  0  0  0  0
  9 18  1  0  0  0  0
 10  2  1  6  0  0  0
 10 11  1  0  0  0  0
 10 12  1  0  0  0  0
 11  5  1  6  0  0  0
 12 13  1  0  0  0  0
 12  3  1  1  0  0  0
 13 14  1  6  0  0  0
 15 17  2  0  0  0  0
 17 18  1  0  0  0  0
M  END
