[NO NAME]
 OpenBabel10141417533D
Created with ChemWriter - http://chemwriter.com
 33 37  0  0  0  0  0  0  0  0999 V2000
   -1.4675   -1.6783   -0.8860 O   0  0  0  0  0  0  0  0  0  0  0  0
   -3.8615   -0.5078   -3.2732 O   0  0  0  0  0  0  0  0  0  0  0  0
    5.0162    3.1479    1.2729 N   0  0  0  0  0  0  0  0  0  0  0  0
    2.4629    1.5912    1.3230 N   0  0  0  0  0  0  0  0  0  0  0  0
    8.8364    5.6292   -4.3734 N   0  0  0  0  0  0  0  0  0  0  0  0
   -3.4540   -2.5709   -2.4711 N   0  0  0  0  0  0  0  0  0  0  0  0
    2.3379    4.8525   -5.7933 N   0  0  0  0  0  0  0  0  0  0  0  0
    4.8616    1.9244    2.0870 C   0  0  0  0  0  0  0  0  0  0  0  0
    3.6907    3.7953    1.2402 C   0  0  0  0  0  0  0  0  0  0  0  0
    3.7655    0.9360    1.6164 C   0  0  0  0  0  0  0  0  0  0  0  0
    2.5696    2.9168    0.6591 C   0  0  0  0  0  0  0  0  0  0  0  0
    5.5404    2.8147   -0.0607 C   0  0  0  0  0  0  0  0  0  0  0  0
    5.7404    4.0213   -0.9811 C   0  0  0  0  0  0  0  0  0  0  0  0
    6.7212    5.0519   -0.4138 C   0  0  0  0  0  0  0  0  0  0  0  0
    1.4477    0.7352    0.8227 C   0  0  0  0  0  0  0  0  0  0  0  0
    6.8997    6.2816   -1.3074 C   0  0  0  0  0  0  0  0  0  0  0  0
    7.4419    5.9757   -2.6681 C   0  0  0  0  0  0  0  0  0  0  0  0
    0.4215    1.2180   -0.0210 C   0  0  0  0  0  0  0  0  0  0  0  0
    1.3903   -0.6332    1.1681 C   0  0  0  0  0  0  0  0  0  0  0  0
    6.6765    5.6781   -3.8407 C   0  0  0  0  0  0  0  0  0  0  0  0
   -0.5344    0.3494   -0.5780 C   0  0  0  0  0  0  0  0  0  0  0  0
    8.7715    5.9188   -3.0360 C   0  0  0  0  0  0  0  0  0  0  0  0
   -0.4909   -0.9901   -0.2345 C   0  0  0  0  0  0  0  0  0  0  0  0
    0.4340   -1.5252    0.6489 C   0  0  0  0  0  0  0  0  0  0  0  0
    7.5698    5.4660   -4.8883 C   0  0  0  0  0  0  0  0  0  0  0  0
   -1.6073    0.4873   -1.4909 C   0  0  0  0  0  0  0  0  0  0  0  0
    5.2942    5.5501   -4.0982 C   0  0  0  0  0  0  0  0  0  0  0  0
    7.1526    5.1468   -6.1861 C   0  0  0  0  0  0  0  0  0  0  0  0
   -2.1373   -0.7744   -1.6737 C   0  0  0  0  0  0  0  0  0  0  0  0
    4.8646    5.1998   -5.3787 C   0  0  0  0  0  0  0  0  0  0  0  0
    5.7744    5.0076   -6.4093 C   0  0  0  0  0  0  0  0  0  0  0  0
   -3.2052   -1.2294   -2.5289 C   0  0  0  0  0  0  0  0  0  0  0  0
    3.4690    5.0192   -5.6300 C   0  0  0  0  0  0  0  0  0  0  0  0
  1 23  1  0  0  0  0
  1 29  1  0  0  0  0
  2 32  2  0  0  0  0
  3  8  1  0  0  0  0
  3  9  1  0  0  0  0
  3 12  1  0  0  0  0
  4 10  1  0  0  0  0
  4 11  1  0  0  0  0
  4 15  1  0  0  0  0
  5 22  1  0  0  0  0
  5 25  1  0  0  0  0
  6 32  1  0  0  0  0
  7 33  3  0  0  0  0
  8 10  1  0  0  0  0
  9 11  1  0  0  0  0
 12 13  1  0  0  0  0
 13 14  1  0  0  0  0
 14 16  1  0  0  0  0
 15 18  2  0  0  0  0
 15 19  1  0  0  0  0
 16 17  1  0  0  0  0
 17 20  1  0  0  0  0
 17 22  2  0  0  0  0
 18 21  1  0  0  0  0
 19 24  2  0  0  0  0
 20 25  2  0  0  0  0
 20 27  1  0  0  0  0
 21 23  2  0  0  0  0
 21 26  1  0  0  0  0
 23 24  1  0  0  0  0
 25 28  1  0  0  0  0
 26 29  2  0  0  0  0
 27 30  2  0  0  0  0
 28 31  2  0  0  0  0
 29 32  1  0  0  0  0
 30 31  1  0  0  0  0
 30 33  1  0  0  0  0
M  END
