
 OpenBabel10141417493D

 22 25  0  0  1  0  0  0  0  0999 V2000
    0.6772    0.5173    0.1266 O   0  0  0  0  0  0  0  0  0  0  0  0
    6.2197   -4.0246    3.0803 O   0  0  0  0  0  0  0  0  0  0  0  0
    4.8832   -2.0122    0.7046 N   0  0  0  0  0  0  0  0  0  0  0  0
    5.0387   -4.9256    1.3488 N   0  0  0  0  0  0  0  0  0  0  0  0
    1.5557   -4.6426    1.0710 N   0  0  0  0  0  0  0  0  0  0  0  0
    4.2459   -0.7257    0.3856 C   0  0  3  0  0  0  0  0  0  0  0  0
    2.0933    0.5628    0.0227 C   0  0  3  0  0  0  0  0  0  0  0  0
    4.0245    0.9267   -1.5437 C   0  0  3  0  0  0  0  0  0  0  0  0
    4.1526    1.7729    0.8251 C   0  0  3  0  0  0  0  0  0  0  0  0
    2.7019   -0.7783    0.4759 C   0  0  0  0  0  0  0  0  0  0  0  0
    4.6269   -0.4129   -1.0898 C   0  0  0  0  0  0  0  0  0  0  0  0
    4.7619    0.4323    1.2762 C   0  0  0  0  0  0  0  0  0  0  0  0
    2.4959    0.8501   -1.4320 C   0  0  0  0  0  0  0  0  0  0  0  0
    2.6214    1.6920    0.9233 C   0  0  0  0  0  0  0  0  0  0  0  0
    4.5519    2.0472   -0.6336 C   0  0  0  0  0  0  0  0  0  0  0  0
    4.6196   -2.5505    2.0502 C   0  0  0  0  0  0  0  0  0  0  0  0
    5.3542   -3.8933    2.2110 C   0  0  0  0  0  0  0  0  0  0  0  0
    4.0487   -4.9146    0.2602 C   0  0  1  0  0  0  0  0  0  0  0  0
    5.8665   -6.1173    1.2937 C   0  0  0  0  0  0  0  0  0  0  0  0
    4.2440   -6.2756   -0.4265 C   0  0  0  0  0  0  0  0  0  0  0  0
    5.7009   -6.6071   -0.1354 C   0  0  0  0  0  0  0  0  0  0  0  0
    2.6540   -4.7644    0.7173 C   0  0  0  0  0  0  0  0  0  0  0  0
  1  7  1  0  0  0  0
  2 17  2  0  0  0  0
  3  6  1  0  0  0  0
  3 16  1  0  0  0  0
  4 17  1  0  0  0  0
  4 18  1  0  0  0  0
  4 19  1  0  0  0  0
  5 22  3  0  0  0  0
  6 10  1  0  0  0  0
  6 11  1  0  0  0  0
  6 12  1  0  0  0  0
  7 10  1  0  0  0  0
  7 13  1  0  0  0  0
  7 14  1  0  0  0  0
  8 11  1  0  0  0  0
  8 13  1  0  0  0  0
  8 15  1  0  0  0  0
  9 12  1  0  0  0  0
  9 14  1  0  0  0  0
  9 15  1  0  0  0  0
 16 17  1  0  0  0  0
 18 20  1  0  0  0  0
 18 22  1  1  0  0  0
 19 21  1  0  0  0  0
 20 21  1  0  0  0  0
M  END
