541
 OpenBabel10141418353D

 60 68  0  0  1  0  0  0  0  0999 V2000
   -1.5068   13.0290   -7.1951 O   0  0  0  0  0  0  0  0  0  0  0  0
   -3.5980   14.6480   -7.0532 O   0  0  0  0  0  0  0  0  0  0  0  0
   -4.8035   15.6259   -4.9411 O   0  0  0  0  0  0  0  0  0  0  0  0
   -3.0695   15.1147   -3.5544 O   0  0  0  0  0  0  0  0  0  0  0  0
   -6.2056   14.1216   -6.8485 O   0  0  0  0  0  0  0  0  0  0  0  0
   -6.6923    7.6876   -6.3158 O   0  0  0  0  0  0  0  0  0  0  0  0
    0.0362   14.3639   -8.2194 O   0  0  0  0  0  0  0  0  0  0  0  0
   -4.4217    6.8964   -3.0061 O   0  0  0  0  0  0  0  0  0  0  0  0
   -5.6605    5.2497   -4.0149 O   0  0  0  0  0  0  0  0  0  0  0  0
   -1.6856    3.5188   -9.3328 O   0  0  0  0  0  0  0  0  0  0  0  0
   -1.5840   11.5919   -2.8179 N   0  0  3  0  0  0  0  0  0  0  0  0
   -5.1903   12.2985   -5.7919 N   0  0  0  0  0  0  0  0  0  0  0  0
   -1.6454    6.7947   -8.8936 N   0  0  3  0  0  0  0  0  0  0  0  0
   -2.3957    4.9987   -4.2881 N   0  0  0  0  0  0  0  0  0  0  0  0
   -3.2537   11.7794   -4.5041 C   0  0  1  0  0  0  0  0  0  0  0  0
   -1.7223   11.8094   -4.2863 C   0  0  2  0  0  0  0  0  0  0  0  0
   -0.8692   13.0441   -4.8765 C   0  0  1  0  0  0  0  0  0  0  0  0
   -3.7693   12.6710   -5.6660 C   0  0  2  0  0  0  0  0  0  0  0  0
   -3.1816   14.0778   -5.7867 C   0  0  1  0  0  0  0  0  0  0  0  0
   -3.8817   12.0391   -3.1092 C   0  0  0  0  0  0  0  0  0  0  0  0
   -1.6359   13.8540   -5.9794 C   0  0  2  0  0  0  0  0  0  0  0  0
   -3.9505   10.4984   -5.0084 C   0  0  0  0  0  0  0  0  0  0  0  0
   -2.7219   12.2443   -2.1648 C   0  0  0  0  0  0  0  0  0  0  0  0
    0.4746   12.3698   -5.4315 C   0  0  0  0  0  0  0  0  0  0  0  0
   -0.3541   13.9863   -3.8005 C   0  0  0  0  0  0  0  0  0  0  0  0
   -5.1474   10.8906   -5.6406 C   0  0  0  0  0  0  0  0  0  0  0  0
   -0.3311   12.0774   -2.2302 C   0  0  0  0  0  0  0  0  0  0  0  0
   -0.0318   13.5019   -2.5931 C   0  0  0  0  0  0  0  0  0  0  0  0
   -3.6365   14.9909   -4.6242 C   0  0  0  0  0  0  0  0  0  0  0  0
   -3.5877    9.1500   -4.9355 C   0  0  0  0  0  0  0  0  0  0  0  0
    1.5621   13.2518   -6.0503 C   0  0  0  0  0  0  0  0  0  0  0  0
   -6.0194    9.9703   -6.1476 C   0  0  0  0  0  0  0  0  0  0  0  0
   -6.2177   12.9893   -6.3832 C   0  0  0  0  0  0  0  0  0  0  0  0
   -4.4298    8.1614   -5.5081 C   0  0  0  0  0  0  0  0  0  0  0  0
   -5.7126    8.6086   -6.0044 C   0  0  0  0  0  0  0  0  0  0  0  0
   -4.0663    6.6304   -5.3866 C   0  0  1  0  0  0  0  0  0  0  0  0
   -0.6038   13.3498   -8.1601 C   0  0  0  0  0  0  0  0  0  0  0  0
   -4.5087    5.7381   -6.6523 C   0  0  0  0  0  0  0  0  0  0  0  0
   -2.5245    6.1688   -5.0471 C   0  0  0  0  0  0  0  0  0  0  0  0
   -3.4175    5.5537   -7.7324 C   0  0  1  0  0  0  0  0  0  0  0  0
   -4.8790    6.1890   -4.0927 C   0  0  0  0  0  0  0  0  0  0  0  0
   -0.4638   12.1746   -9.0943 C   0  0  0  0  0  0  0  0  0  0  0  0
   -5.5387   16.2775   -3.8973 C   0  0  0  0  0  0  0  0  0  0  0  0
   -3.7753    4.6984   -8.9653 C   0  0  0  0  0  0  0  0  0  0  0  0
   -2.9490    6.9073   -8.2618 C   0  0  0  0  0  0  0  0  0  0  0  0
   -1.1978    6.4294   -5.4812 C   0  0  0  0  0  0  0  0  0  0  0  0
   -2.5254    4.5430   -9.8904 C   0  0  1  0  0  0  0  0  0  0  0  0
   -1.7043    5.8734  -10.0427 C   0  0  0  0  0  0  0  0  0  0  0  0
   -0.6218    7.2940   -6.5903 C   0  0  0  0  0  0  0  0  0  0  0  0
   -0.5399    6.5362   -7.9556 C   0  0  0  0  0  0  0  0  0  0  0  0
   -0.3053    5.5486   -4.7375 C   0  0  0  0  0  0  0  0  0  0  0  0
   -8.0444    8.1522   -6.1503 C   0  0  0  0  0  0  0  0  0  0  0  0
   -1.0955    4.6484   -4.0468 C   0  0  0  0  0  0  0  0  0  0  0  0
   -2.9518    4.0283  -11.2896 C   0  0  0  0  0  0  0  0  0  0  0  0
    1.1020    5.3762   -4.6689 C   0  0  0  0  0  0  0  0  0  0  0  0
   -0.5730    3.5742   -3.3115 C   0  0  0  0  0  0  0  0  0  0  0  0
   -1.7916    3.8296  -12.2675 C   0  0  0  0  0  0  0  0  0  0  0  0
   -4.6119    6.2955   -1.7262 C   0  0  0  0  0  0  0  0  0  0  0  0
    1.6478    4.3248   -3.9173 C   0  0  0  0  0  0  0  0  0  0  0  0
    0.8160    3.4296   -3.2554 C   0  0  0  0  0  0  0  0  0  0  0  0
  1 37  1  0  0  0  0
  3 29  1  0  0  0  0
  3 43  1  0  0  0  0
  4 29  2  0  0  0  0
  5 33  2  0  0  0  0
  6 52  1  0  0  0  0
  6 35  1  0  0  0  0
  7 37  2  0  0  0  0
  8 41  1  0  0  0  0
  8 58  1  0  0  0  0
  9 41  2  0  0  0  0
 11 23  1  0  0  0  0
 11 27  1  0  0  0  0
 12 26  1  0  0  0  0
 12 33  1  0  0  0  0
 13 45  1  0  0  0  0
 13 48  1  0  0  0  0
 13 50  1  0  0  0  0
 14 39  1  0  0  0  0
 14 53  1  0  0  0  0
 15 16  1  0  0  0  0
 15 18  1  0  0  0  0
 15 20  1  6  0  0  0
 15 22  1  0  0  0  0
 16 11  1  6  0  0  0
 16 17  1  0  0  0  0
 17 21  1  0  0  0  0
 17 25  1  0  0  0  0
 17 24  1  1  0  0  0
 18 12  1  1  0  0  0
 18 19  1  0  0  0  0
 19 21  1  0  0  0  0
 19  2  1  6  0  0  0
 19 29  1  0  0  0  0
 20 23  1  0  0  0  0
 21  1  1  6  0  0  0
 22 26  1  0  0  0  0
 22 30  2  0  0  0  0
 24 31  1  0  0  0  0
 25 28  2  0  0  0  0
 26 32  2  0  0  0  0
 27 28  1  0  0  0  0
 30 34  1  0  0  0  0
 32 35  1  0  0  0  0
 34 35  2  0  0  0  0
 36 38  1  0  0  0  0
 36 39  1  0  0  0  0
 36 34  1  6  0  0  0
 36 41  1  0  0  0  0
 37 42  1  0  0  0  0
 39 46  2  0  0  0  0
 40 38  1  1  0  0  0
 40 44  1  0  0  0  0
 40 45  1  0  0  0  0
 44 47  1  0  0  0  0
 46 49  1  0  0  0  0
 46 51  1  0  0  0  0
 47 48  1  0  0  0  0
 47 54  1  6  0  0  0
 47 10  1  0  0  0  0
 49 50  1  0  0  0  0
 51 53  1  0  0  0  0
 51 55  2  0  0  0  0
 53 56  2  0  0  0  0
 54 57  1  0  0  0  0
 55 59  1  0  0  0  0
 56 60  1  0  0  0  0
 59 60  2  0  0  0  0
M  END
