
 OpenBabel10141418003D

 48 49  0  0  0  0  0  0  0  0999 V2000
   13.1928    8.5721   10.2061 C   0  0  1  0  0  0  0  0  0  0  0  0
   11.8135    8.7311    9.5216 C   0  0  2  0  0  0  0  0  0  0  0  0
   13.7686    7.1664    9.9716 C   0  0  0  0  0  0  0  0  0  0  0  0
   14.1326    9.5445    9.6485 N   0  0  0  0  0  0  0  0  0  0  0  0
   11.1965   10.0673    9.6909 N   0  0  0  0  0  0  0  0  0  0  0  0
   10.7917    7.7453   10.1213 C   0  0  0  0  0  0  0  0  0  0  0  0
   15.1868    7.1003   10.5045 C   0  0  1  0  0  0  0  0  0  0  0  0
   15.4728    9.3840    9.6203 C   0  0  0  0  0  0  0  0  0  0  0  0
   10.6504   10.7141    8.5966 C   0  0  0  0  0  0  0  0  0  0  0  0
   10.6182    6.5869    9.3958 N   0  0  0  0  0  0  0  0  0  0  0  0
   10.1790    7.9960   11.1541 O   0  0  0  0  0  0  0  0  0  0  0  0
   15.9520    8.2035   10.0441 N   0  0  0  0  0  0  0  0  0  0  0  0
   15.1792    7.1450   11.9120 O   0  0  0  0  0  0  0  0  0  0  0  0
   16.2920   10.2813    9.2046 N   0  0  0  0  0  0  0  0  0  0  0  0
    9.5196   11.6862    8.8744 C   0  0  0  0  0  0  0  0  0  0  0  0
   10.9377   10.4374    7.4331 O   0  0  0  0  0  0  0  0  0  0  0  0
    9.4071    5.7683    9.5182 C   0  0  0  0  0  0  0  0  0  0  0  0
    8.4080   11.5566    8.0229 N   0  0  0  0  0  0  0  0  0  0  0  0
    9.6289   12.5195    9.9305 C   0  0  0  0  0  0  0  0  0  0  0  0
    8.3045    6.1837    8.5109 C   0  0  1  0  0  0  0  0  0  0  0  0
    7.1878   11.2044    8.5798 C   0  0  0  0  0  0  0  0  0  0  0  0
    8.8185   13.5378   10.3970 N   0  0  0  0  0  0  0  0  0  0  0  0
    7.3867    7.2857    9.1114 C   0  0  0  0  0  0  0  0  0  0  0  0
    8.9172    6.6304    7.2520 N   0  0  0  0  0  0  0  0  0  0  0  0
    5.9497   11.0746    7.6577 C   0  0  1  0  0  0  0  0  0  0  0  0
    7.0410   11.0520    9.7980 O   0  0  0  0  0  0  0  0  0  0  0  0
    7.8900   14.3583    9.8389 C   0  0  0  0  0  0  0  0  0  0  0  0
    6.0379    6.9728    9.1345 N   0  0  0  0  0  0  0  0  0  0  0  0
    7.8119    8.4032    9.4037 O   0  0  0  0  0  0  0  0  0  0  0  0
    8.1493    7.0784    6.1948 C   0  0  0  0  0  0  0  0  0  0  0  0
    4.9976   10.3104    8.4980 N   0  0  0  0  0  0  0  0  0  0  0  0
    5.3886   12.4676    7.3505 C   0  0  0  0  0  0  0  0  0  0  0  0
    7.7387   14.3205    8.5078 N   0  0  0  0  0  0  0  0  0  0  0  0
    7.2814   15.1815   10.5114 O   0  0  0  0  0  0  0  0  0  0  0  0
    4.9890    7.9707    9.4191 C   0  0  2  0  0  0  0  0  0  0  0  0
    8.9582    7.3831    4.9450 C   0  0  0  0  0  0  0  0  0  0  0  0
    6.9545    7.2367    6.3095 O   0  0  0  0  0  0  0  0  0  0  0  0
    4.8299    8.9694    8.2392 C   0  0  0  0  0  0  0  0  0  0  0  0
    4.1760   12.4075    6.6044 O   0  0  0  0  0  0  0  0  0  0  0  0
    4.9286    8.5164   10.8565 C   0  0  0  0  0  0  0  0  0  0  0  0
    8.2605    7.1295    3.5987 C   0  0  2  0  0  0  0  0  0  0  0  0
    4.6044    8.5711    7.0962 O   0  0  0  0  0  0  0  0  0  0  0  0
    6.0776    9.1618   11.3755 O   0  0  0  0  0  0  0  0  0  0  0  0
    7.8262    5.6660    3.3460 C   0  0  0  0  0  0  0  0  0  0  0  0
    9.1926    7.5373    2.5273 N   0  0  0  0  0  0  0  0  0  0  0  0
    6.7526    5.1283    4.3018 C   0  0  0  0  0  0  0  0  0  0  0  0
    5.4772    5.9777    4.2505 C   0  0  0  0  0  0  0  0  0  0  0  0
    4.5074    5.5429    5.2534 N   0  0  0  0  0  0  0  0  0  0  0  0
  1  2  1  0  0  0  0
  1  3  1  6  0  0  0
  1  4  1  0  0  0  0
  2  5  1  1  0  0  0
  2  6  1  0  0  0  0
  3  7  1  0  0  0  0
  4  8  1  0  0  0  0
  5  9  1  0  0  0  0
  6 10  1  0  0  0  0
  6 11  2  0  0  0  0
  7 12  1  0  0  0  0
  7 13  1  1  0  0  0
  8 14  2  0  0  0  0
  8 12  1  0  0  0  0
  9 15  1  0  0  0  0
  9 16  2  0  0  0  0
 10 17  1  0  0  0  0
 15 18  1  0  0  0  0
 15 19  2  0  0  0  0
 17 20  1  0  0  0  0
 18 21  1  0  0  0  0
 19 22  1  0  0  0  0
 20 23  1  0  0  0  0
 20 24  1  6  0  0  0
 21 25  1  0  0  0  0
 21 26  2  0  0  0  0
 22 27  1  0  0  0  0
 23 28  1  0  0  0  0
 23 29  2  0  0  0  0
 24 30  1  0  0  0  0
 25 31  1  0  0  0  0
 25 32  1  1  0  0  0
 27 33  1  0  0  0  0
 27 34  2  0  0  0  0
 28 35  1  0  0  0  0
 30 36  1  0  0  0  0
 30 37  2  0  0  0  0
 31 38  1  0  0  0  0
 32 39  1  0  0  0  0
 35 38  1  0  0  0  0
 35 40  1  1  0  0  0
 38 42  2  0  0  0  0
 40 43  1  0  0  0  0
 41 45  1  6  0  0  0
 41 44  1  0  0  0  0
 41 36  1  0  0  0  0
 44 46  1  0  0  0  0
 46 47  1  0  0  0  0
 47 48  1  0  0  0  0
M  END
