
 OpenBabel10141417523D

 27 29  0  0  0  0  0  0  0  0999 V2000
    2.4628   -4.5990    1.0611 C   0  0  0  0  0  0  0  0  0  0  0  0
    1.2421   -4.6333    0.4165 C   0  0  0  0  0  0  0  0  0  0  0  0
    0.9284   -3.5755   -0.4209 C   0  0  0  0  0  0  0  0  0  0  0  0
    1.8492   -2.5393   -0.5898 C   0  0  0  0  0  0  0  0  0  0  0  0
    3.0760   -2.5730    0.0846 C   0  0  0  0  0  0  0  0  0  0  0  0
    3.3625   -3.5976    0.9234 N   0  0  0  0  0  0  0  0  0  0  0  0
    4.1035   -1.4990   -0.0458 C   0  0  0  0  0  0  0  0  0  0  0  0
    3.6864   -0.1670   -0.3166 C   0  0  0  0  0  0  0  0  0  0  0  0
    4.5722    0.9106   -0.4587 C   0  0  0  0  0  0  0  0  0  0  0  0
    5.9366    0.6680   -0.3062 C   0  0  0  0  0  0  0  0  0  0  0  0
    6.3927   -0.6275   -0.0507 C   0  0  0  0  0  0  0  0  0  0  0  0
    5.4942   -1.7002    0.0795 C   0  0  0  0  0  0  0  0  0  0  0  0
    6.2330   -3.2458    0.3527 Cl  0  0  0  0  0  0  0  0  0  0  0  0
    4.1633    2.2353   -0.7576 N   0  0  0  0  0  0  0  0  0  0  0  0
    2.8661    2.6955   -0.9424 C   0  0  0  0  0  0  0  0  0  0  0  0
    2.6842    4.1457   -1.2758 C   0  0  0  0  0  0  0  0  0  0  0  0
    1.8528    2.0051   -0.9018 O   0  0  0  0  0  0  0  0  0  0  0  0
    1.5641    4.4681   -2.0753 C   0  0  0  0  0  0  0  0  0  0  0  0
    1.2894    5.7888   -2.4503 C   0  0  0  0  0  0  0  0  0  0  0  0
    2.1411    6.8036   -2.0225 C   0  0  0  0  0  0  0  0  0  0  0  0
    3.2322    6.5165   -1.2002 C   0  0  0  0  0  0  0  0  0  0  0  0
    3.5057    5.1914   -0.8284 C   0  0  0  0  0  0  0  0  0  0  0  0
    4.8635    4.9590    0.2147 Cl  0  0  0  0  0  0  0  0  0  0  0  0
    1.8085    8.4900   -2.4859 S   0  0  0  0  0  0  0  0  0  0  0  0
    2.7185    8.6734   -3.9978 C   0  0  0  0  0  0  0  0  0  0  0  0
    0.3971    8.5924   -2.7847 O   0  0  0  0  0  0  0  0  0  0  0  0
    2.4277    9.3404   -1.4798 O   0  0  0  0  0  0  0  0  0  0  0  0
  1  2  1  0  0  0  0
  1  6  2  0  0  0  0
  2  3  2  0  0  0  0
  3  4  1  0  0  0  0
  4  5  2  0  0  0  0
  5  6  1  0  0  0  0
  5  7  1  0  0  0  0
  7  8  2  0  0  0  0
  7 12  1  0  0  0  0
  8  9  1  0  0  0  0
  9 10  2  0  0  0  0
  9 14  1  0  0  0  0
 10 11  1  0  0  0  0
 11 12  2  0  0  0  0
 12 13  1  0  0  0  0
 14 15  1  0  0  0  0
 15 16  1  0  0  0  0
 15 17  2  0  0  0  0
 16 18  1  0  0  0  0
 16 22  2  0  0  0  0
 18 19  2  0  0  0  0
 19 20  1  0  0  0  0
 20 21  2  0  0  0  0
 20 24  1  0  0  0  0
 21 22  1  0  0  0  0
 22 23  1  0  0  0  0
 24 25  1  0  0  0  0
 24 26  2  0  0  0  0
 24 27  2  0  0  0  0
M  END
