
 OpenBabel10141417473D

 12 12  0  0  1  0  0  0  0  0999 V2000
    0.5144   -3.7289    3.0417 O   0  0  0  0  0  0  0  0  0  0  0  0
    1.0791   -4.1117   -0.5069 O   0  0  0  0  0  0  0  0  0  0  0  0
    1.1540   -6.6399    1.0032 O   0  0  0  0  0  0  0  0  0  0  0  0
    0.6905   -5.0703    2.9208 C   0  0  0  0  0  0  0  0  0  0  0  0
    0.6751   -5.9018    3.8145 O   0  0  0  0  0  0  0  0  0  0  0  0
    0.9264   -5.3938    1.5104 C   0  0  0  0  0  0  0  0  0  0  0  0
    0.8804   -4.2506    0.8400 C   0  0  0  0  0  0  0  0  0  0  0  0
    0.1800   -0.7087    0.0147 O   0  0  0  0  0  0  0  0  0  0  0  0
   -0.8204   -1.7279    0.0701 C   0  0  0  0  0  0  0  0  0  0  0  0
   -0.7723   -2.4081    1.4427 C   0  0  2  0  0  0  0  0  0  0  0  0
   -1.0278   -1.3968    2.4372 O   0  0  0  0  0  0  0  0  0  0  0  0
    0.5772   -3.1013    1.7322 C   0  0  1  0  0  0  0  0  0  0  0  0
  1  4  1  0  0  0  0
  4  5  2  0  0  0  0
  4  6  1  0  0  0  0
  6  3  1  0  0  0  0
  6  7  2  0  0  0  0
  7  2  1  0  0  0  0
  8  9  1  0  0  0  0
 10 11  1  1  0  0  0
 10 12  1  0  0  0  0
 10  9  1  0  0  0  0
 12  1  1  1  0  0  0
 12  7  1  0  0  0  0
M  END
