
 OpenBabel10141417503D

 52 60  0  0  1  0  0  0  0  0999 V2000
   -0.7543   -1.3140    0.4965 O   0  0  0  0  0  0  0  0  0  0  0  0
   -0.4671    0.8844    0.0692 O   0  0  0  0  0  0  0  0  0  0  0  0
   -3.7623   -7.2864    0.5852 O   0  0  0  0  0  0  0  0  0  0  0  0
   -8.0035   -6.5046   -2.5362 O   0  0  0  0  0  0  0  0  0  0  0  0
   -6.0961   -5.2736   -2.7715 O   0  0  0  0  0  0  0  0  0  0  0  0
   -3.9091    0.7776    0.7475 N   0  0  3  0  0  0  0  0  0  0  0  0
   -2.4681   -2.6230   -2.1102 N   0  0  0  0  0  0  0  0  0  0  0  0
   -5.6719   -7.8078   -6.3525 N   0  0  0  0  0  0  0  0  0  0  0  0
   -1.7715   -8.6701   -4.0163 N   0  0  0  0  0  0  0  0  0  0  0  0
   -4.0564    0.0966   -0.5109 C   0  0  2  0  0  0  0  0  0  0  0  0
   -2.5243   -0.2570   -1.0077 C   0  0  1  0  0  0  0  0  0  0  0  0
   -2.8746    2.1545   -1.2058 C   0  0  2  0  0  0  0  0  0  0  0  0
   -4.9636    0.9528   -1.4837 C   0  0  2  0  0  0  0  0  0  0  0  0
   -2.2753    0.8706   -1.9701 C   0  0  0  0  0  0  0  0  0  0  0  0
   -4.2836    2.2950   -1.7725 C   0  0  0  0  0  0  0  0  0  0  0  0
   -3.1095    1.9946    0.4057 C   0  0  0  0  0  0  0  0  0  0  0  0
   -2.6798   -1.7260   -1.1025 C   0  0  0  0  0  0  0  0  0  0  0  0
   -3.3636   -0.1998    1.7299 C   0  0  0  0  0  0  0  0  0  0  0  0
   -6.3870    1.1359   -0.9067 C   0  0  0  0  0  0  0  0  0  0  0  0
   -3.0759   -2.4067    0.0559 C   0  0  0  0  0  0  0  0  0  0  0  0
   -1.1317   -0.1374   -0.0898 C   0  0  0  0  0  0  0  0  0  0  0  0
   -3.4624   -1.7871    1.4424 C   0  0  0  0  0  0  0  0  0  0  0  0
   -3.0585   -3.7738   -0.2904 C   0  0  0  0  0  0  0  0  0  0  0  0
   -2.7439   -3.8976   -1.6360 C   0  0  0  0  0  0  0  0  0  0  0  0
   -7.3152    1.9387   -1.8062 C   0  0  0  0  0  0  0  0  0  0  0  0
   -3.3026   -4.9245    0.4521 C   0  0  0  0  0  0  0  0  0  0  0  0
   -2.7450   -5.1568   -2.2677 C   0  0  0  0  0  0  0  0  0  0  0  0
   -3.1895   -6.3166   -1.5655 C   0  0  0  0  0  0  0  0  0  0  0  0
   -3.3211   -7.6908   -2.2933 C   0  0  1  0  0  0  0  0  0  0  0  0
   -5.6821   -8.6302   -3.4078 C   0  0  2  0  0  0  0  0  0  0  0  0
   -3.4236   -6.1790   -0.1698 C   0  0  0  0  0  0  0  0  0  0  0  0
   -4.6927   -8.4371   -2.1987 C   0  0  0  0  0  0  0  0  0  0  0  0
   -6.3518   -7.3677   -3.9909 C   0  0  3  0  0  0  0  0  0  0  0  0
   -5.6970   -6.8114   -5.2616 C   0  0  1  0  0  0  0  0  0  0  0  0
   -0.0055   -1.2698    1.7125 C   0  0  0  0  0  0  0  0  0  0  0  0
   -2.7715   -7.7740   -3.7024 C   0  0  0  0  0  0  0  0  0  0  0  0
   -4.2884   -6.2005   -5.0943 C   0  0  0  0  0  0  0  0  0  0  0  0
   -5.3035   -9.5686   -4.5888 C   0  0  0  0  0  0  0  0  0  0  0  0
   -3.1542   -7.1640   -4.8921 C   0  0  0  0  0  0  0  0  0  0  0  0
   -5.9453   -9.1851   -5.9233 C   0  0  0  0  0  0  0  0  0  0  0  0
   -2.2375   -7.6045   -5.9075 C   0  0  0  0  0  0  0  0  0  0  0  0
   -6.7634   -6.2986   -3.0186 C   0  0  0  0  0  0  0  0  0  0  0  0
   -1.3975   -8.5536   -5.3324 C   0  0  0  0  0  0  0  0  0  0  0  0
   -6.5399   -7.4168   -7.4598 C   0  0  0  0  0  0  0  0  0  0  0  0
   -4.5325  -10.6677   -4.4356 C   0  0  0  0  0  0  0  0  0  0  0  0
   -2.0526   -7.2890   -7.2707 C   0  0  0  0  0  0  0  0  0  0  0  0
   -4.0991   -7.0042    1.9553 C   0  0  0  0  0  0  0  0  0  0  0  0
   -0.3935   -9.2168   -6.0504 C   0  0  0  0  0  0  0  0  0  0  0  0
   -4.0770  -11.6382   -5.4855 C   0  0  0  0  0  0  0  0  0  0  0  0
   -1.0212   -7.9025   -7.9918 C   0  0  0  0  0  0  0  0  0  0  0  0
   -0.2065   -8.8562   -7.3881 C   0  0  0  0  0  0  0  0  0  0  0  0
   -8.6367   -5.4208   -1.8538 C   0  0  0  0  0  0  0  0  0  0  0  0
  1 21  1  0  0  0  0
  1 35  1  0  0  0  0
  2 21  2  0  0  0  0
  3 31  1  0  0  0  0
  3 47  1  0  0  0  0
  4 42  1  0  0  0  0
  4 52  1  0  0  0  0
  5 42  2  0  0  0  0
  6 16  1  0  0  0  0
  6 18  1  0  0  0  0
  7 17  1  0  0  0  0
  7 24  1  0  0  0  0
  8 40  1  0  0  0  0
  8 44  1  0  0  0  0
  9 36  1  0  0  0  0
  9 43  1  0  0  0  0
 10  6  1  1  0  0  0
 10 11  1  0  0  0  0
 10 13  1  0  0  0  0
 11 14  1  0  0  0  0
 11 17  1  0  0  0  0
 11 21  1  6  0  0  0
 12 14  1  1  0  0  0
 12 15  1  0  0  0  0
 12 16  1  0  0  0  0
 13 15  1  0  0  0  0
 13 19  1  1  0  0  0
 17 20  2  0  0  0  0
 18 22  1  0  0  0  0
 19 25  1  0  0  0  0
 20 22  1  0  0  0  0
 20 23  1  0  0  0  0
 23 24  1  0  0  0  0
 23 26  2  0  0  0  0
 24 27  2  0  0  0  0
 26 31  1  0  0  0  0
 27 28  1  0  0  0  0
 28 31  2  0  0  0  0
 29 32  1  0  0  0  0
 29 36  1  0  0  0  0
 29 28  1  6  0  0  0
 30 32  1  1  0  0  0
 30 33  1  0  0  0  0
 30 38  1  0  0  0  0
 33 34  1  0  0  0  0
 33 42  1  0  0  0  0
 34  8  1  6  0  0  0
 34 37  1  0  0  0  0
 36 39  2  0  0  0  0
 37 39  1  0  0  0  0
 38 40  1  0  0  0  0
 38 45  2  0  0  0  0
 39 41  1  0  0  0  0
 41 43  1  0  0  0  0
 41 46  2  0  0  0  0
 43 48  2  0  0  0  0
 45 49  1  0  0  0  0
 46 50  1  0  0  0  0
 48 51  1  0  0  0  0
 50 51  2  0  0  0  0
M  END
