
 OpenBabel10141417503D

 18 18  0  0  1  0  0  0  0  0999 V2000
    1.9785   -0.3654    0.7536 O   0  0  0  0  0  0  0  0  0  0  0  0
    3.7365   -2.3770    0.5860 O   0  0  0  0  0  0  0  0  0  0  0  0
    2.3807   -1.0642   -3.8840 O   0  0  0  0  0  0  0  0  0  0  0  0
    3.7633   -2.8716   -2.2351 O   0  0  0  0  0  0  0  0  0  0  0  0
    3.5064    1.6678    1.9626 O   0  0  0  0  0  0  0  0  0  0  0  0
   -1.4918   -0.6762   -0.8233 O   0  0  0  0  0  0  0  0  0  0  0  0
    0.8455    0.9368   -4.8562 O   0  0  0  0  0  0  0  0  0  0  0  0
    0.9306    0.5984   -1.6689 N   0  0  0  0  0  0  0  0  0  0  0  0
    3.2754   -0.0142    0.2194 C   0  0  2  0  0  0  0  0  0  0  0  0
    2.3452    0.6583   -2.1091 C   0  0  1  0  0  0  0  0  0  0  0  0
    3.1717    1.0889   -0.8766 C   0  0  0  0  0  0  0  0  0  0  0  0
    3.8410   -1.3152   -0.3756 C   0  0  2  0  0  0  0  0  0  0  0  0
    3.0122   -0.6208   -2.6762 C   0  0  1  0  0  0  0  0  0  0  0  0
    3.0779   -1.7519   -1.6413 C   0  0  1  0  0  0  0  0  0  0  0  0
    4.1197    0.4980    1.4066 C   0  0  0  0  0  0  0  0  0  0  0  0
   -0.0901    0.1790   -2.6689 C   0  0  0  0  0  0  0  0  0  0  0  0
   -1.4627    0.2079   -1.9409 C   0  0  0  0  0  0  0  0  0  0  0  0
   -0.2272    1.0703   -3.9318 C   0  0  0  0  0  0  0  0  0  0  0  0
  5 15  1  0  0  0  0
  6 17  1  0  0  0  0
  7 18  1  0  0  0  0
  8 16  1  0  0  0  0
  9  1  1  1  0  0  0
  9 11  1  0  0  0  0
  9 12  1  0  0  0  0
  9 15  1  0  0  0  0
 10 11  1  0  0  0  0
 10 13  1  0  0  0  0
 10  8  1  1  0  0  0
 12  2  1  1  0  0  0
 12 14  1  0  0  0  0
 13 14  1  0  0  0  0
 13  3  1  6  0  0  0
 14  4  1  6  0  0  0
 16 17  1  0  0  0  0
 16 18  1  0  0  0  0
M  END
