582
 OpenBabel10141417523D

 25 27  0  0  1  0  0  0  0  0999 V2000
    5.8384    0.8482   -1.3150 F   0  0  0  0  0  0  0  0  0  0  0  0
    3.3372   -2.1797   -3.7271 F   0  0  0  0  0  0  0  0  0  0  0  0
    6.5392   -2.6433    1.7245 F   0  0  0  0  0  0  0  0  0  0  0  0
    1.8293    0.9813   -0.0401 O   0  0  0  0  0  0  0  0  0  0  0  0
    2.6382    3.2431   -1.8493 N   0  0  0  0  0  0  0  0  0  0  0  0
    3.1226    1.4136   -4.2062 N   0  0  0  0  0  0  0  0  0  0  0  0
    1.3129    3.3170   -1.6029 N   0  0  0  0  0  0  0  0  0  0  0  0
    2.0302    5.0687   -2.8877 N   0  0  0  0  0  0  0  0  0  0  0  0
    4.1981    0.4029   -6.0863 N   0  0  0  0  0  0  0  0  0  0  0  0
    2.8836    0.8018   -1.0346 C   0  0  1  0  0  0  0  0  0  0  0  0
    2.1792    0.1903   -2.3157 C   0  0  1  0  0  0  0  0  0  0  0  0
    3.4869    2.2293   -1.2543 C   0  0  0  0  0  0  0  0  0  0  0  0
    3.8972   -0.1434   -0.3331 C   0  0  0  0  0  0  0  0  0  0  0  0
    1.4322   -1.1352   -2.0491 C   0  0  0  0  0  0  0  0  0  0  0  0
    2.9901    0.1921   -3.6053 C   0  0  0  0  0  0  0  0  0  0  0  0
    5.2929   -0.0592   -0.4971 C   0  0  0  0  0  0  0  0  0  0  0  0
    3.4441   -1.1141    0.5925 C   0  0  0  0  0  0  0  0  0  0  0  0
    3.4614   -0.9389   -4.2409 C   0  0  0  0  0  0  0  0  0  0  0  0
    6.1834   -0.8835    0.1993 C   0  0  0  0  0  0  0  0  0  0  0  0
    4.3272   -1.9646    1.2733 C   0  0  0  0  0  0  0  0  0  0  0  0
    3.0539    4.3073   -2.5868 C   0  0  0  0  0  0  0  0  0  0  0  0
    5.6907   -1.8407    1.0667 C   0  0  0  0  0  0  0  0  0  0  0  0
    4.0606   -0.7867   -5.4683 C   0  0  0  0  0  0  0  0  0  0  0  0
    3.7076    1.4504   -5.4145 C   0  0  0  0  0  0  0  0  0  0  0  0
    0.9880    4.4251   -2.2762 C   0  0  0  0  0  0  0  0  0  0  0  0
  1 16  1  0  0  0  0
  2 18  1  0  0  0  0
  3 22  1  0  0  0  0
  5  7  1  0  0  0  0
  5 12  1  0  0  0  0
  5 21  1  0  0  0  0
  6 15  2  0  0  0  0
  6 24  1  0  0  0  0
  7 25  2  0  0  0  0
  8 21  2  0  0  0  0
  8 25  1  0  0  0  0
  9 23  1  0  0  0  0
  9 24  2  0  0  0  0
 10 12  1  6  0  0  0
 10 13  1  0  0  0  0
 10 11  1  0  0  0  0
 10  4  1  0  0  0  0
 11 14  1  6  0  0  0
 11 15  1  0  0  0  0
 13 16  2  0  0  0  0
 13 17  1  0  0  0  0
 15 18  1  0  0  0  0
 16 19  1  0  0  0  0
 17 20  2  0  0  0  0
 18 23  2  0  0  0  0
 19 22  2  0  0  0  0
 20 22  1  0  0  0  0
M  END
