
 OpenBabel10141418023D

 15  9  0  0  0  0  0  0  0  0999 V2000
    0.9455   -0.0740   -0.0393 Cl  0  0  0  0  0  0  0  0  0  0  0  0
    1.0639   -0.0267    0.0721 Cl  0  0  0  0  0  0  0  0  0  0  0  0
    0.9377    0.0628   -0.0467 Cl  0  0  0  0  0  0  0  0  0  0  0  0
    0.9556   -0.0785    0.0433 Cl  0  0  0  0  0  0  0  0  0  0  0  0
       nan       nan       nan O   0  5  0  0  0  0  0  0  0  0  0  0
       nan       nan       nan O   0  5  0  0  0  0  0  0  0  0  0  0
       nan       nan       nan O   0  5  0  0  0  0  0  0  0  0  0  0
       nan       nan       nan O   0  5  0  0  0  0  0  0  0  0  0  0
    2.4442   -0.0740   -0.0393 O   0  0  0  0  0  0  0  0  0  0  0  0
    2.5627   -0.0267    0.0721 O   0  0  0  0  0  0  0  0  0  0  0  0
    2.4364    0.0628   -0.0467 O   0  0  0  0  0  0  0  0  0  0  0  0
    2.4544   -0.0785    0.0433 O   0  0  0  0  0  0  0  0  0  0  0  0
    1.0208    0.0184   -0.0961 O   0  0  0  0  0  0  0  0  0  0  0  0
    1.0716    0.0573    0.0400 O   0  0  0  0  0  0  0  0  0  0  0  0
    2.2127    0.0573    0.0400 O   0  0  0  0  0  0  0  0  0  0  0  0
  1  5  1  0  0  0  0
  1  9  2  0  0  0  0
  2  6  1  0  0  0  0
  2 10  2  0  0  0  0
  3  7  1  0  0  0  0
  3 11  2  0  0  0  0
  4  8  1  0  0  0  0
  4 12  2  0  0  0  0
 14 15  2  0  0  0  0
M  CHG  4   5  -1   6  -1   7  -1   8  -1
M  END
