
 OpenBabel10141417543D

 18 19  0  0  0  0  0  0  0  0999 V2000
    1.1439   -0.5299   -0.7295 C   0  0  0  0  0  0  0  0  0  0  0  0
    2.6023   -0.2979   -0.4207 C   0  0  0  0  0  0  0  0  0  0  0  0
    3.4390   -1.4306   -0.3860 C   0  0  0  0  0  0  0  0  0  0  0  0
    4.8077   -1.3497   -0.1012 C   0  0  0  0  0  0  0  0  0  0  0  0
    5.3237   -0.0691    0.1532 C   0  0  0  0  0  0  0  0  0  0  0  0
    4.5157    1.0888    0.1405 C   0  0  0  0  0  0  0  0  0  0  0  0
    5.1806    2.4163    0.4048 C   0  0  0  0  0  0  0  0  0  0  0  0
    3.1310    0.9793   -0.1299 C   0  0  0  0  0  0  0  0  0  0  0  0
    2.2306    2.2079   -0.1503 C   0  0  0  0  0  0  0  0  0  0  0  0
    1.1051    2.1611    0.8599 C   0  0  0  0  0  0  0  0  0  0  0  0
   -0.1543    2.2452    0.4922 N   0  0  0  0  0  0  0  0  0  0  0  0
   -0.9071    2.1425    1.7709 C   0  0  0  0  0  0  0  0  0  0  0  0
    0.0894    1.6658    2.8334 C   0  0  0  0  0  0  0  0  0  0  0  0
    1.3433    2.0084    2.2048 N   0  0  0  0  0  0  0  0  0  0  0  0
    5.7152   -2.5935   -0.0655 C   0  0  0  0  0  0  0  0  0  0  0  0
    6.8423   -2.4680   -1.1129 C   0  0  0  0  0  0  0  0  0  0  0  0
    6.3517   -2.7446    1.3328 C   0  0  0  0  0  0  0  0  0  0  0  0
    4.9602   -3.9099   -0.3666 C   0  0  0  0  0  0  0  0  0  0  0  0
  1  2  1  0  0  0  0
  2  3  2  0  0  0  0
  2  8  1  0  0  0  0
  3  4  1  0  0  0  0
  4  5  2  0  0  0  0
  4 15  1  0  0  0  0
  5  6  1  0  0  0  0
  6  7  1  0  0  0  0
  6  8  2  0  0  0  0
  8  9  1  0  0  0  0
  9 10  1  0  0  0  0
 10 11  2  0  0  0  0
 10 14  1  0  0  0  0
 11 12  1  0  0  0  0
 12 13  1  0  0  0  0
 13 14  1  0  0  0  0
 15 16  1  0  0  0  0
 15 17  1  0  0  0  0
 15 18  1  0  0  0  0
M  END
