1392
 OpenBabel10141417533D

 26 30  0  0  1  0  0  0  0  0999 V2000
    1.9814    0.9449    0.4681 O   0  0  0  0  0  0  0  0  0  0  0  0
    3.3139   -1.0377    2.0629 O   0  0  0  0  0  0  0  0  0  0  0  0
    4.9173   -1.1426    0.4256 O   0  0  0  0  0  0  0  0  0  0  0  0
    5.2633   -3.5867   -2.3427 N   0  0  3  0  0  0  0  0  0  0  0  0
    3.3596   -6.7371   -1.6918 N   0  0  0  0  0  0  0  0  0  0  0  0
    2.8155   -2.2517   -1.3826 C   0  0  2  0  0  0  0  0  0  0  0  0
    3.7092   -1.5747   -2.4485 C   0  0  2  0  0  0  0  0  0  0  0  0
    3.2279   -3.6994   -1.0648 C   0  0  0  0  0  0  0  0  0  0  0  0
    3.9927   -4.3192   -2.2411 C   0  0  1  0  0  0  0  0  0  0  0  0
    2.5401   -1.3872   -0.1369 C   0  0  2  0  0  0  0  0  0  0  0  0
    5.1387   -2.1480   -2.5638 C   0  0  0  0  0  0  0  0  0  0  0  0
    3.7412   -0.0408   -2.3294 C   0  0  0  0  0  0  0  0  0  0  0  0
    1.8958   -0.0503   -0.5487 C   0  0  2  0  0  0  0  0  0  0  0  0
    2.4058    0.5368   -1.8733 C   0  0  0  0  0  0  0  0  0  0  0  0
    4.2698   -5.7793   -2.0471 C   0  0  0  0  0  0  0  0  0  0  0  0
    6.2692   -4.2306   -3.2045 C   0  0  0  0  0  0  0  0  0  0  0  0
    5.4764   -6.4101   -2.2761 C   0  0  0  0  0  0  0  0  0  0  0  0
    6.6776   -5.6361   -2.6952 C   0  0  0  0  0  0  0  0  0  0  0  0
    3.7453   -1.1808    0.7719 C   0  0  0  0  0  0  0  0  0  0  0  0
    5.3021   -7.7966   -2.0270 C   0  0  0  0  0  0  0  0  0  0  0  0
    3.9650   -7.9765   -1.6632 C   0  0  0  0  0  0  0  0  0  0  0  0
    6.1475   -8.9218   -2.0775 C   0  0  0  0  0  0  0  0  0  0  0  0
    3.4329   -9.2329   -1.3479 C   0  0  0  0  0  0  0  0  0  0  0  0
    5.6304  -10.1840   -1.7641 C   0  0  0  0  0  0  0  0  0  0  0  0
    4.2927  -10.3344   -1.4051 C   0  0  0  0  0  0  0  0  0  0  0  0
    4.3663   -0.8076    3.0016 C   0  0  0  0  0  0  0  0  0  0  0  0
  2 19  1  0  0  0  0
  2 26  1  0  0  0  0
  3 19  2  0  0  0  0
  4  9  1  0  0  0  0
  4 11  1  0  0  0  0
  4 16  1  0  0  0  0
  5 15  1  0  0  0  0
  5 21  1  0  0  0  0
  6  7  1  0  0  0  0
  6  8  1  6  0  0  0
  6 10  1  0  0  0  0
  7 11  1  1  0  0  0
  7 12  1  0  0  0  0
  9  8  1  6  0  0  0
  9 15  1  0  0  0  0
 10 13  1  0  0  0  0
 10 19  1  6  0  0  0
 12 14  1  0  0  0  0
 13 14  1  0  0  0  0
 13  1  1  1  0  0  0
 15 17  2  0  0  0  0
 16 18  1  0  0  0  0
 17 18  1  0  0  0  0
 17 20  1  0  0  0  0
 20 21  1  0  0  0  0
 20 22  2  0  0  0  0
 21 23  2  0  0  0  0
 22 24  1  0  0  0  0
 23 25  1  0  0  0  0
 24 25  2  0  0  0  0
M  END
