549
 OpenBabel10141418373D

 41 45  0  0  0  0  0  0  0  0999 V2000
    1.1046    0.0261    4.4331 S   0  0  0  0  0  0  0  0  0  0  0  0
   -1.3669    8.7758    8.4510 O   0  0  0  0  0  0  0  0  0  0  0  0
   -1.5465    7.8111    6.3951 O   0  0  0  0  0  0  0  0  0  0  0  0
   -1.3139    6.1775    3.4937 O   0  0  0  0  0  0  0  0  0  0  0  0
    1.0982    1.2164    1.5994 O   0  0  0  0  0  0  0  0  0  0  0  0
    1.6329    0.1890    5.7763 O   0  0  0  0  0  0  0  0  0  0  0  0
    1.7772   -0.7884    3.4582 O   0  0  0  0  0  0  0  0  0  0  0  0
    3.3053    9.1819    2.3864 N   0  0  0  0  0  0  0  0  0  0  0  0
    0.0699    9.4119    6.8989 N   0  0  0  0  0  0  0  0  0  0  0  0
    0.9311    1.5967    3.8930 N   0  0  0  0  0  0  0  0  0  0  0  0
   -2.0555    7.6730    9.0516 C   0  0  0  0  0  0  0  0  0  0  0  0
   -3.5179    7.5116    8.6548 C   0  0  0  0  0  0  0  0  0  0  0  0
   -2.1246    7.8972   10.5642 C   0  0  0  0  0  0  0  0  0  0  0  0
   -4.0915    6.6777    9.7925 C   0  0  0  0  0  0  0  0  0  0  0  0
   -3.3865    7.1843   11.0454 C   0  0  0  0  0  0  0  0  0  0  0  0
   -1.0178    8.6160    7.1447 C   0  0  0  0  0  0  0  0  0  0  0  0
    1.3512    8.8408    3.4102 C   0  0  0  0  0  0  0  0  0  0  0  0
    1.2673    8.3000    2.0750 C   0  0  0  0  0  0  0  0  0  0  0  0
    2.6439    9.3528    3.5831 C   0  0  0  0  0  0  0  0  0  0  0  0
    0.8744    9.4220    5.7410 C   0  0  0  0  0  0  0  0  0  0  0  0
    0.0994    7.6157    1.4092 C   0  0  0  0  0  0  0  0  0  0  0  0
    0.4499    8.9218    4.5016 C   0  0  0  0  0  0  0  0  0  0  0  0
    2.4943    8.5511    1.4826 C   0  0  0  0  0  0  0  0  0  0  0  0
    3.0706    9.9125    4.7986 C   0  0  0  0  0  0  0  0  0  0  0  0
    2.1697    9.9304    5.8705 C   0  0  0  0  0  0  0  0  0  0  0  0
    0.2492    6.1329    1.6853 C   0  0  0  0  0  0  0  0  0  0  0  0
    4.6601    9.6046    2.1047 C   0  0  0  0  0  0  0  0  0  0  0  0
   -0.3412    5.5083    2.7950 C   0  0  0  0  0  0  0  0  0  0  0  0
    1.0172    5.3378    0.8120 C   0  0  0  0  0  0  0  0  0  0  0  0
    0.0226    4.2076    3.1524 C   0  0  0  0  0  0  0  0  0  0  0  0
    0.7946    3.4315    2.2861 C   0  0  0  0  0  0  0  0  0  0  0  0
    1.2746    3.9942    1.1001 C   0  0  0  0  0  0  0  0  0  0  0  0
    0.9867    1.9815    2.5370 C   0  0  0  0  0  0  0  0  0  0  0  0
   -0.5596   -0.5972    4.6329 C   0  0  0  0  0  0  0  0  0  0  0  0
   -0.7536   -1.8999    5.1386 C   0  0  0  0  0  0  0  0  0  0  0  0
   -2.4604    5.3647    3.7856 C   0  0  0  0  0  0  0  0  0  0  0  0
   -1.6627    0.2181    4.3339 C   0  0  0  0  0  0  0  0  0  0  0  0
   -2.0685   -2.3654    5.3062 C   0  0  0  0  0  0  0  0  0  0  0  0
    0.3935   -2.8115    5.4840 C   0  0  0  0  0  0  0  0  0  0  0  0
   -2.9595   -0.2516    4.5486 C   0  0  0  0  0  0  0  0  0  0  0  0
   -3.1617   -1.5439    5.0242 C   0  0  0  0  0  0  0  0  0  0  0  0
  1  6  2  0  0  0  0
  1  7  2  0  0  0  0
  1 10  1  0  0  0  0
  1 34  1  0  0  0  0
  2 11  1  0  0  0  0
  2 16  1  0  0  0  0
  3 16  2  0  0  0  0
  4 28  1  0  0  0  0
  4 36  1  0  0  0  0
  5 33  2  0  0  0  0
  8 19  1  0  0  0  0
  8 23  1  0  0  0  0
  8 27  1  0  0  0  0
  9 16  1  0  0  0  0
  9 20  1  0  0  0  0
 10 33  1  0  0  0  0
 11 12  1  0  0  0  0
 11 13  1  0  0  0  0
 12 14  1  0  0  0  0
 13 15  1  0  0  0  0
 14 15  1  0  0  0  0
 17 18  1  0  0  0  0
 17 19  2  0  0  0  0
 17 22  1  0  0  0  0
 18 21  1  0  0  0  0
 18 23  2  0  0  0  0
 19 24  1  0  0  0  0
 20 22  2  0  0  0  0
 20 25  1  0  0  0  0
 21 26  1  0  0  0  0
 24 25  2  0  0  0  0
 26 28  2  0  0  0  0
 26 29  1  0  0  0  0
 28 30  1  0  0  0  0
 29 32  2  0  0  0  0
 30 31  2  0  0  0  0
 31 32  1  0  0  0  0
 31 33  1  0  0  0  0
 34 35  1  0  0  0  0
 34 37  2  0  0  0  0
 35 38  2  0  0  0  0
 35 39  1  0  0  0  0
 37 40  1  0  0  0  0
 38 41  1  0  0  0  0
 40 41  2  0  0  0  0
M  END
