943
 OpenBabel10141417513D

 15 16  0  0  1  0  0  0  0  0999 V2000
   -0.7080   -1.0029   -0.1016 O   0  0  0  0  0  0  0  0  0  0  0  0
   -2.3357    0.6659   -1.9122 O   0  0  0  0  0  0  0  0  0  0  0  0
    3.2016   -2.0620   -0.2548 O   0  0  0  0  0  0  0  0  0  0  0  0
    1.2892   -1.4172   -1.3361 N   0  0  0  0  0  0  0  0  0  0  0  0
    3.1177   -2.4275   -2.4872 N   0  0  0  0  0  0  0  0  0  0  0  0
    3.0512   -2.7706   -4.7325 N   0  0  0  0  0  0  0  0  0  0  0  0
    0.7336   -0.9600   -0.0673 C   0  0  1  0  0  0  0  0  0  0  0  0
    1.1335    0.4700    0.2912 C   0  0  0  0  0  0  0  0  0  0  0  0
   -0.0879    1.2762   -0.0827 C   0  0  0  0  0  0  0  0  0  0  0  0
   -1.2105    0.3042    0.2331 C   0  0  1  0  0  0  0  0  0  0  0  0
   -2.5252    0.5778   -0.5005 C   0  0  0  0  0  0  0  0  0  0  0  0
    0.6143   -1.2471   -2.5234 C   0  0  0  0  0  0  0  0  0  0  0  0
    2.5726   -1.9740   -1.3067 C   0  0  0  0  0  0  0  0  0  0  0  0
    1.1334   -1.6566   -3.6786 C   0  0  0  0  0  0  0  0  0  0  0  0
    2.4616   -2.2900   -3.5955 C   0  0  0  0  0  0  0  0  0  0  0  0
  1  7  1  0  0  0  0
  1 10  1  0  0  0  0
  2 11  1  0  0  0  0
  3 13  2  0  0  0  0
  4 12  1  0  0  0  0
  4 13  1  0  0  0  0
  5 13  1  0  0  0  0
  5 15  2  0  0  0  0
  6 15  1  0  0  0  0
  7  4  1  6  0  0  0
  7  8  1  0  0  0  0
  8  9  1  0  0  0  0
  9 10  1  0  0  0  0
 10 11  1  6  0  0  0
 12 14  2  0  0  0  0
 14 15  1  0  0  0  0
M  END
