558
 OpenBabel10141417483D

 23 23  0  0  1  0  0  0  0  0999 V2000
    3.1785   -1.0122    3.6183 O   0  0  0  0  0  0  0  0  0  0  0  0
    0.4644   -1.4744    2.7455 O   0  0  0  0  0  0  0  0  0  0  0  0
    2.6569   -1.7741    1.0659 O   0  0  0  0  0  0  0  0  0  0  0  0
    3.0885    0.2374   -0.9589 O   0  0  0  0  0  0  0  0  0  0  0  0
    0.4888    2.9980    5.9323 O   0  0  0  0  0  0  0  0  0  0  0  0
    5.3941   -2.4095    3.8527 O   0  0  0  0  0  0  0  0  0  0  0  0
    5.7467   -1.7478    6.0019 O   0  0  0  0  0  0  0  0  0  0  0  0
    2.2974    1.9850    4.9621 N   0  0  0  0  0  0  0  0  0  0  0  0
    0.6529   -1.2764    5.7347 N   0  0  0  0  0  0  0  0  0  0  0  0
   -1.0576   -0.0317    6.8487 N   0  0  0  0  0  0  0  0  0  0  0  0
   -1.4543   -2.0552    6.0430 N   0  0  0  0  0  0  0  0  0  0  0  0
    2.2620    0.0771    3.4138 C   0  0  2  0  0  0  0  0  0  0  0  0
    1.6163    0.7087    4.6791 C   0  0  1  0  0  0  0  0  0  0  0  0
    1.2030   -0.3056    2.3450 C   0  0  1  0  0  0  0  0  0  0  0  0
    1.6558   -0.2234    5.9045 C   0  0  2  0  0  0  0  0  0  0  0  0
    1.8111   -0.6176    0.9499 C   0  0  1  0  0  0  0  0  0  0  0  0
    3.0047   -0.8546    5.9903 C   0  0  0  0  0  0  0  0  0  0  0  0
    3.6848   -1.1866    4.8850 C   0  0  0  0  0  0  0  0  0  0  0  0
    2.5954    0.5586    0.3405 C   0  0  0  0  0  0  0  0  0  0  0  0
    1.6610    3.0352    5.5779 C   0  0  0  0  0  0  0  0  0  0  0  0
    5.0301   -1.8081    5.0025 C   0  0  0  0  0  0  0  0  0  0  0  0
   -0.5237   -1.0906    6.2043 C   0  0  0  0  0  0  0  0  0  0  0  0
    2.5487    4.2408    5.7272 C   0  0  0  0  0  0  0  0  0  0  0  0
  1 18  1  0  0  0  0
  4 19  1  0  0  0  0
  5 20  2  0  0  0  0
  6 21  1  0  0  0  0
  7 21  2  0  0  0  0
  8 20  1  0  0  0  0
  9 22  2  0  0  0  0
 10 22  1  0  0  0  0
 11 22  1  0  0  0  0
 12  1  1  1  0  0  0
 12 13  1  0  0  0  0
 13 15  1  0  0  0  0
 13  8  1  1  0  0  0
 14 12  1  0  0  0  0
 14  2  1  1  0  0  0
 15  9  1  6  0  0  0
 15 17  1  0  0  0  0
 16 19  1  1  0  0  0
 16 14  1  0  0  0  0
 16  3  1  0  0  0  0
 17 18  2  0  0  0  0
 18 21  1  0  0  0  0
 20 23  1  0  0  0  0
M  END
