744
 OpenBabel10141419043D

 16 17  0  0  1  0  0  0  0  0999 V2000
   -0.6482   -0.9963   -0.8828 S   0  0  0  0  0  0  0  0  0  0  0  0
   -4.8464   -3.0392   -1.3592 O   0  0  0  0  0  0  0  0  0  0  0  0
   -3.2020   -1.0835   -3.8063 O   0  0  0  0  0  0  0  0  0  0  0  0
   -4.2073   -1.8877   -1.8855 N   0  0  0  0  0  0  0  0  0  0  0  0
   -4.4439   -2.9581   -3.9022 N   0  0  0  0  0  0  0  0  0  0  0  0
   -3.4394   -1.0968   -0.9133 C   0  0  3  0  0  0  0  0  0  0  0  0
   -2.1348   -1.7876   -0.5717 C   0  0  0  0  0  0  0  0  0  0  0  0
   -0.5314   -3.3363    0.1964 C   0  0  0  0  0  0  0  0  0  0  0  0
   -1.9201   -3.0243    0.0059 C   0  0  0  0  0  0  0  0  0  0  0  0
    0.2847   -2.3001   -0.2604 C   0  0  0  0  0  0  0  0  0  0  0  0
   -4.2592   -0.7982    0.3423 C   0  0  0  0  0  0  0  0  0  0  0  0
    0.0902   -4.4823    0.7495 C   0  0  0  0  0  0  0  0  0  0  0  0
    1.6901   -2.3807   -0.1864 C   0  0  0  0  0  0  0  0  0  0  0  0
    1.4842   -4.5662    0.8264 C   0  0  0  0  0  0  0  0  0  0  0  0
    2.2748   -3.5249    0.3606 C   0  0  0  0  0  0  0  0  0  0  0  0
   -3.8849   -1.9170   -3.2238 C   0  0  0  0  0  0  0  0  0  0  0  0
  1  7  1  0  0  0  0
  1 10  1  0  0  0  0
  2  4  1  0  0  0  0
  3 16  2  0  0  0  0
  4  6  1  0  0  0  0
  4 16  1  0  0  0  0
  5 16  1  0  0  0  0
  6  7  1  0  0  0  0
  6 11  1  0  0  0  0
  7  9  2  0  0  0  0
  8  9  1  0  0  0  0
  8 10  1  0  0  0  0
  8 12  2  0  0  0  0
 10 13  2  0  0  0  0
 12 14  1  0  0  0  0
 13 15  1  0  0  0  0
 14 15  2  0  0  0  0
M  END
