246
 OpenBabel10141417483D

 28 32  0  0  0  0  0  0  0  0999 V2000
    5.6756    1.9258    1.8270 Cl  0  0  0  0  0  0  0  0  0  0  0  0
   -0.0007    8.6005    3.4330 S   0  0  0  0  0  0  0  0  0  0  0  0
    8.6297   -0.4861   -4.5032 O   0  0  0  0  0  0  0  0  0  0  0  0
    2.1740    4.5566    0.0376 N   0  0  0  0  0  0  0  0  0  0  0  0
    2.8550    6.4022    2.2976 N   0  0  0  0  0  0  0  0  0  0  0  0
    0.9000    7.7698    2.3334 N   0  0  0  0  0  0  0  0  0  0  0  0
    8.1360    0.0994   -2.3109 N   0  0  0  0  0  0  0  0  0  0  0  0
    2.2721    6.0326   -0.1341 C   0  0  0  0  0  0  0  0  0  0  0  0
    1.8135    4.3006    1.4530 C   0  0  0  0  0  0  0  0  0  0  0  0
    3.1690    6.7669    0.8969 C   0  0  0  0  0  0  0  0  0  0  0  0
    2.7671    4.9397    2.4892 C   0  0  0  0  0  0  0  0  0  0  0  0
    3.4162    3.8872   -0.3941 C   0  0  0  0  0  0  0  0  0  0  0  0
    3.3734    2.3504   -0.2686 C   0  0  0  0  0  0  0  0  0  0  0  0
    1.9122    7.1618    2.9490 C   0  0  0  0  0  0  0  0  0  0  0  0
    4.6651    1.7029   -0.7269 C   0  0  0  0  0  0  0  0  0  0  0  0
    2.0023    7.3939    4.3841 C   0  0  0  0  0  0  0  0  0  0  0  0
    5.9803    0.7849   -2.5121 C   0  0  0  0  0  0  0  0  0  0  0  0
    4.7845    1.3275   -2.0797 C   0  0  0  0  0  0  0  0  0  0  0  0
    7.0439    0.6114   -1.6313 C   0  0  0  0  0  0  0  0  0  0  0  0
    5.7611    1.4964    0.1526 C   0  0  0  0  0  0  0  0  0  0  0  0
    6.3888    0.3256   -3.8810 C   0  0  0  0  0  0  0  0  0  0  0  0
    0.9665    8.2335    4.7997 C   0  0  0  0  0  0  0  0  0  0  0  0
    6.9638    0.9429   -0.2989 C   0  0  0  0  0  0  0  0  0  0  0  0
    7.8524   -0.0814   -3.6616 C   0  0  0  0  0  0  0  0  0  0  0  0
    2.9344    6.9680    5.3659 C   0  0  0  0  0  0  0  0  0  0  0  0
    0.8269    8.6614    6.1313 C   0  0  0  0  0  0  0  0  0  0  0  0
    2.8075    7.3884    6.6948 C   0  0  0  0  0  0  0  0  0  0  0  0
    1.7673    8.2297    7.0697 C   0  0  0  0  0  0  0  0  0  0  0  0
  1 20  1  0  0  0  0
  2  6  1  0  0  0  0
  2 22  1  0  0  0  0
  3 24  2  0  0  0  0
  4  8  1  0  0  0  0
  4  9  1  0  0  0  0
  4 12  1  0  0  0  0
  5 10  1  0  0  0  0
  5 11  1  0  0  0  0
  5 14  1  0  0  0  0
  6 14  2  0  0  0  0
  7 19  1  0  0  0  0
  7 24  1  0  0  0  0
  8 10  1  0  0  0  0
  9 11  1  0  0  0  0
 12 13  1  0  0  0  0
 13 15  1  0  0  0  0
 14 16  1  0  0  0  0
 15 18  1  0  0  0  0
 15 20  2  0  0  0  0
 16 22  1  0  0  0  0
 16 25  2  0  0  0  0
 17 18  2  0  0  0  0
 17 19  1  0  0  0  0
 17 21  1  0  0  0  0
 19 23  2  0  0  0  0
 20 23  1  0  0  0  0
 21 24  1  0  0  0  0
 22 26  2  0  0  0  0
 25 27  1  0  0  0  0
 26 28  1  0  0  0  0
 27 28  2  0  0  0  0
M  END
