68740
 OpenBabel10141417493D

 16 16  0  0  0  0  0  0  0  0999 V2000
    1.0806    0.0576    0.0137 P   0  0  0  0  0  0  0  0  0  0  0  0
    3.7008    1.1435   -1.2723 P   0  0  0  0  0  0  0  0  0  0  0  0
    3.3938    0.6274    1.2751 O   0  0  0  0  0  0  0  0  0  0  0  0
    2.7426    1.1887   -2.5638 O   0  0  0  0  0  0  0  0  0  0  0  0
    3.5185    2.6643   -0.7625 O   0  0  0  0  0  0  0  0  0  0  0  0
    1.0961   -0.9613    1.3070 O   0  0  0  0  0  0  0  0  0  0  0  0
    1.0971    1.4505    0.9010 O   0  0  0  0  0  0  0  0  0  0  0  0
    5.1172    0.8724   -1.6508 O   0  0  0  0  0  0  0  0  0  0  0  0
   -0.4637    0.0576    0.0137 O   0  0  0  0  0  0  0  0  0  0  0  0
    3.2104   -2.0016   -1.3801 N   0  0  0  0  0  0  0  0  0  0  0  0
    3.5379   -2.9579   -3.3527 N   0  0  0  0  0  0  0  0  0  0  0  0
    2.9106    0.0576    0.0137 C   0  0  0  0  0  0  0  0  0  0  0  0
    3.5165   -1.3429   -0.1292 C   0  0  0  0  0  0  0  0  0  0  0  0
    1.9804   -2.4079   -1.8186 C   0  0  0  0  0  0  0  0  0  0  0  0
    4.1188   -2.3799   -2.3315 C   0  0  0  0  0  0  0  0  0  0  0  0
    2.2036   -2.9808   -3.0448 C   0  0  0  0  0  0  0  0  0  0  0  0
  1  6  1  0  0  0  0
  1  7  1  0  0  0  0
  1  9  2  0  0  0  0
  1 12  1  0  0  0  0
  2  4  1  0  0  0  0
  2  5  1  0  0  0  0
  2  8  2  0  0  0  0
  2 12  1  0  0  0  0
  3 12  1  0  0  0  0
 10 13  1  0  0  0  0
 10 14  1  0  0  0  0
 10 15  1  0  0  0  0
 11 15  2  0  0  0  0
 11 16  1  0  0  0  0
 12 13  1  0  0  0  0
 14 16  2  0  0  0  0
M  END
