
 OpenBabel10141417523D

 21 23  0  0  1  0  0  0  0  0999 V2000
    1.0988    0.8072   -0.5571 C   0  0  0  0  0  0  0  0  0  0  0  0
   -0.1497    1.3698   -0.2341 C   0  0  0  0  0  0  0  0  0  0  0  0
    0.8704    3.6013   -0.3631 C   0  0  0  0  0  0  0  0  0  0  0  0
    2.2547    1.6018   -0.5298 C   0  0  0  0  0  0  0  0  0  0  0  0
    2.1278    2.9901   -0.4510 C   0  0  0  0  0  0  0  0  0  0  0  0
   -0.2405    2.7630   -0.1984 C   0  0  0  0  0  0  0  0  0  0  0  0
    3.6061    0.9242   -0.4290 C   0  0  0  0  0  0  0  0  0  0  0  0
   -2.2410    1.9279    0.3810 C   0  0  0  0  0  0  0  0  0  0  0  0
   -1.4102    0.8293    0.1990 C   0  0  0  0  0  0  0  0  0  0  0  0
   -1.8048   -0.6103    0.5079 C   0  0  0  0  0  0  0  0  0  0  0  0
   -1.1032   -3.0858    0.8031 N   0  0  0  0  0  0  0  0  0  0  0  0
   -2.0924   -3.5858   -0.1574 C   0  0  0  0  0  0  0  0  0  0  0  0
    0.0502   -4.0044    0.7555 C   0  0  0  0  0  0  0  0  0  0  0  0
   -0.6911   -1.6947    0.4656 C   0  0  0  0  0  0  0  0  0  0  0  0
   -1.5579    3.0683    0.0433 N   0  0  0  0  0  0  0  0  0  0  0  0
    4.1919    0.4539   -1.7556 C   0  0  2  0  0  0  0  0  0  0  0  0
    3.4158   -0.5446   -2.4152 N   0  0  0  0  0  0  0  0  0  0  0  0
    4.2379   -1.4060   -3.0953 C   0  0  0  0  0  0  0  0  0  0  0  0
    5.5302   -1.2214   -2.6837 O   0  0  0  0  0  0  0  0  0  0  0  0
    3.8789   -2.1835   -3.9449 O   0  0  0  0  0  0  0  0  0  0  0  0
    5.5268   -0.2628   -1.6142 C   0  0  0  0  0  0  0  0  0  0  0  0
  1  4  1  0  0  0  0
  2  1  2  0  0  0  0
  2  9  1  0  0  0  0
  2  6  1  0  0  0  0
  3  5  1  0  0  0  0
  4  7  1  0  0  0  0
  4  5  2  0  0  0  0
  6  3  2  0  0  0  0
  6 15  1  0  0  0  0
  9  8  2  0  0  0  0
  9 10  1  0  0  0  0
 10 14  1  0  0  0  0
 11 12  1  0  0  0  0
 11 13  1  0  0  0  0
 14 11  1  0  0  0  0
 15  8  1  0  0  0  0
 16  7  1  1  0  0  0
 16 17  1  0  0  0  0
 16 21  1  0  0  0  0
 17 18  1  0  0  0  0
 18 20  2  0  0  0  0
 18 19  1  0  0  0  0
 21 19  1  0  0  0  0
M  END
