425
 OpenBabel10141417503D

 23 25  0  0  0  0  0  0  0  0999 V2000
    3.2441    2.4550    0.9916 O   0  0  0  0  0  0  0  0  0  0  0  0
    5.8299    1.0667   -1.0927 N   0  0  0  0  0  0  0  0  0  0  0  0
    6.3768   -0.9270   -1.9458 N   0  0  0  0  0  0  0  0  0  0  0  0
    2.7888    0.2222    1.3782 N   0  0  0  0  0  0  0  0  0  0  0  0
    4.6266    0.3905   -1.2966 C   0  0  0  0  0  0  0  0  0  0  0  0
    5.0069   -0.8338   -1.8553 C   0  0  0  0  0  0  0  0  0  0  0  0
    6.8473    0.2133   -1.5061 C   0  0  0  0  0  0  0  0  0  0  0  0
    3.2942    1.0066   -0.9534 C   0  0  0  0  0  0  0  0  0  0  0  0
    4.1871   -1.9663   -2.2918 C   0  0  0  0  0  0  0  0  0  0  0  0
    6.0917    2.3483   -0.5917 C   0  0  0  0  0  0  0  0  0  0  0  0
    7.3613    2.7917   -0.4927 C   0  0  0  0  0  0  0  0  0  0  0  0
    8.1878    0.6750   -1.4026 C   0  0  0  0  0  0  0  0  0  0  0  0
    3.1283    1.2951    0.5549 C   0  0  0  0  0  0  0  0  0  0  0  0
    8.4396    1.9046   -0.9187 C   0  0  0  0  0  0  0  0  0  0  0  0
    4.6801   -3.2741   -2.1239 C   0  0  0  0  0  0  0  0  0  0  0  0
    2.9479   -1.8119   -2.9177 C   0  0  0  0  0  0  0  0  0  0  0  0
    7.7360    4.1460    0.0235 C   0  0  0  0  0  0  0  0  0  0  0  0
    2.6990   -4.2287   -3.1500 C   0  0  0  0  0  0  0  0  0  0  0  0
    3.9489   -4.3932   -2.5490 C   0  0  0  0  0  0  0  0  0  0  0  0
    2.1989   -2.9310   -3.3122 C   0  0  0  0  0  0  0  0  0  0  0  0
    2.4926    0.4623    2.7827 C   0  0  0  0  0  0  0  0  0  0  0  0
    2.4637   -1.1150    0.8953 C   0  0  0  0  0  0  0  0  0  0  0  0
    1.8928   -5.4071   -3.6163 C   0  0  0  0  0  0  0  0  0  0  0  0
  1 13  2  0  0  0  0
  2  5  1  0  0  0  0
  2  7  1  0  0  0  0
  2 10  1  0  0  0  0
  3  6  1  0  0  0  0
  3  7  2  0  0  0  0
  4 13  1  0  0  0  0
  4 21  1  0  0  0  0
  4 22  1  0  0  0  0
  5  6  2  0  0  0  0
  5  8  1  0  0  0  0
  6  9  1  0  0  0  0
  7 12  1  0  0  0  0
  8 13  1  0  0  0  0
  9 15  2  0  0  0  0
  9 16  1  0  0  0  0
 10 11  2  0  0  0  0
 11 14  1  0  0  0  0
 11 17  1  0  0  0  0
 12 14  2  0  0  0  0
 15 19  1  0  0  0  0
 16 20  2  0  0  0  0
 18 19  2  0  0  0  0
 18 20  1  0  0  0  0
 18 23  1  0  0  0  0
M  END
