909
 OpenBabel10141417513D

 14 15  0  0  0  0  0  0  0  0999 V2000
    4.1853    1.4507    0.6988 S   0  0  0  0  0  0  0  0  0  0  0  0
    3.7400   -0.6488   -3.4888 O   0  0  0  0  0  0  0  0  0  0  0  0
    5.3197    0.5587    0.7553 O   0  0  0  0  0  0  0  0  0  0  0  0
    4.3303    2.8644    0.4352 O   0  0  0  0  0  0  0  0  0  0  0  0
    3.2965   -0.7403   -2.1810 N   0  0  0  0  0  0  0  0  0  0  0  0
    3.5222    1.3835    2.2456 N   0  0  0  0  0  0  0  0  0  0  0  0
    2.8657    0.7593   -0.3060 C   0  0  0  0  0  0  0  0  0  0  0  0
    3.3022    0.5137   -1.7015 C   0  0  0  0  0  0  0  0  0  0  0  0
    3.7072    1.4443   -2.6966 C   0  0  0  0  0  0  0  0  0  0  0  0
    3.9838    0.6512   -3.7970 C   0  0  0  0  0  0  0  0  0  0  0  0
    3.8781    2.8349   -2.8128 C   0  0  0  0  0  0  0  0  0  0  0  0
    4.4369    1.1321   -5.0226 C   0  0  0  0  0  0  0  0  0  0  0  0
    4.3344    3.3544   -4.0338 C   0  0  0  0  0  0  0  0  0  0  0  0
    4.6103    2.5164   -5.1178 C   0  0  0  0  0  0  0  0  0  0  0  0
  1  3  2  0  0  0  0
  1  4  2  0  0  0  0
  1  6  1  0  0  0  0
  1  7  1  0  0  0  0
  2  5  1  0  0  0  0
  2 10  1  0  0  0  0
  5  8  2  0  0  0  0
  7  8  1  0  0  0  0
  8  9  1  0  0  0  0
  9 10  1  0  0  0  0
  9 11  2  0  0  0  0
 10 12  2  0  0  0  0
 11 13  1  0  0  0  0
 12 14  1  0  0  0  0
 13 14  2  0  0  0  0
M  END
